Version 4
SHEET 1 14868 10612
WIRE -288 80 -304 80
WIRE -272 80 -288 80
WIRE -304 208 -304 80
WIRE 2208 416 1920 416
WIRE 2448 416 2208 416
WIRE 2736 416 2448 416
WIRE 2896 416 2736 416
WIRE 3184 416 2896 416
WIRE 2208 448 2208 416
WIRE 2448 448 2448 416
WIRE -304 480 -304 272
WIRE 2736 528 2736 416
WIRE 2208 576 2208 528
WIRE 2560 576 2208 576
WIRE 2672 576 2560 576
WIRE 3184 608 3184 416
WIRE 2208 624 2208 576
WIRE 2208 624 2080 624
WIRE 2208 656 2208 624
WIRE -240 672 -304 672
WIRE -96 672 -240 672
WIRE 64 672 -16 672
WIRE 128 672 64 672
WIRE 1904 704 1872 704
WIRE 2144 704 1904 704
WIRE 2080 832 2080 624
WIRE 1904 880 1872 880
WIRE 2016 880 1904 880
WIRE -752 912 -752 880
WIRE 2896 976 2896 416
WIRE -752 1008 -752 992
WIRE 2448 1024 2448 528
WIRE 2560 1024 2448 1024
WIRE 2832 1024 2560 1024
WIRE 2448 1056 2448 1024
WIRE 2448 1056 2320 1056
WIRE 3184 1072 3184 688
WIRE 3280 1072 3184 1072
WIRE 3344 1072 3280 1072
WIRE 2448 1088 2448 1056
WIRE 2736 1104 2736 624
WIRE 2896 1104 2896 1072
WIRE 2896 1104 2736 1104
WIRE 2896 1120 2896 1104
WIRE 1904 1136 1872 1136
WIRE 2384 1136 1904 1136
WIRE 3088 1184 3024 1184
WIRE 3184 1184 3184 1072
WIRE 3184 1184 3152 1184
WIRE 3184 1232 3184 1184
WIRE 2320 1264 2320 1056
WIRE 2896 1280 2896 1200
WIRE 3024 1280 3024 1184
WIRE 3024 1280 2896 1280
WIRE 3120 1280 3024 1280
WIRE 1904 1312 1872 1312
WIRE 2256 1312 1904 1312
WIRE 2896 1344 2896 1280
WIRE 2080 1472 2080 928
WIRE 2080 1472 1968 1472
WIRE 2208 1472 2208 752
WIRE 2208 1472 2080 1472
WIRE 2320 1472 2320 1360
WIRE 2320 1472 2208 1472
WIRE 2448 1472 2448 1184
WIRE 2448 1472 2320 1472
WIRE 2896 1472 2896 1424
WIRE 2896 1472 2448 1472
WIRE 3184 1472 3184 1328
WIRE 3184 1472 2896 1472
WIRE 3344 1472 3184 1472
WIRE 1968 1520 1968 1472
FLAG -752 1008 0
FLAG 128 880 BIT0
FLAG -752 880 VCC
FLAG 48 880 0
FLAG 128 1040 BIT1
FLAG 48 1040 0
FLAG 128 1184 BIT2
FLAG 48 1184 0
FLAG 128 1328 BIT3
FLAG 48 1328 0
FLAG 128 1472 BIT4
FLAG 48 1472 0
FLAG -1088 1456 BIT0
FLAG -1088 1536 0
FLAG -928 1456 BIT1
FLAG -928 1536 0
FLAG -768 1456 BIT2
FLAG -768 1536 0
FLAG -608 1456 BIT3
FLAG -608 1536 0
FLAG -448 1456 BIT4
FLAG -448 1536 0
FLAG 3280 1072 OUT
FLAG 2560 1024 INT2
FLAG 1920 416 VCC
FLAG -240 672 BIT0
FLAG 64 672 IN
FLAG 2560 576 INT1
FLAG -288 80 OUT
FLAG -304 480 0
FLAG 1904 1136 BIT2
FLAG 1904 1312 BIT3
FLAG 1968 1520 0
FLAG 1904 704 BIT0
FLAG 1904 880 BIT1
SYMBOL voltage -752 896 R0
WINDOW 123 0 0 Left 0
WINDOW 39 0 0 Left 0
SYMATTR InstName VCC
SYMATTR Value {VCC}
SYMBOL voltage 144 880 R90
WINDOW 123 -77 30 VRight 2
WINDOW 39 0 0 Left 0
WINDOW 0 -51 28 VRight 2
WINDOW 3 46 -379 VRight 2
SYMATTR Value2 AC 5
SYMATTR InstName V_BIT0
SYMATTR Value PULSE(0 {VCC} 0 {rise} {rise} {1/freq/2-rise} {1/freq} {16*reps})
SYMBOL voltage 144 1040 R90
WINDOW 123 -77 30 VRight 2
WINDOW 39 0 0 Left 0
WINDOW 0 -51 28 VRight 2
WINDOW 3 46 -379 VRight 2
SYMATTR InstName V_BIT1
SYMATTR Value PULSE(0 {VCC} 0 {rise} {rise} {2*1/freq/2-rise} {2*1/freq} {8*reps})
SYMBOL voltage 144 1184 R90
WINDOW 123 -77 30 VRight 2
WINDOW 39 0 0 Left 0
WINDOW 0 -51 28 VRight 2
WINDOW 3 46 -379 VRight 2
SYMATTR InstName V_BIT2
SYMATTR Value PULSE(0 {VCC} 0 {rise} {rise} {4*1/freq/2-rise} {4*1/freq} {4*reps})
SYMBOL voltage 144 1328 R90
WINDOW 123 -77 30 VRight 2
WINDOW 39 0 0 Left 0
WINDOW 0 -51 28 VRight 2
WINDOW 3 46 -379 VRight 2
SYMATTR InstName V_BIT3
SYMATTR Value PULSE(0 {VCC} 0 {rise} {rise} {8*1/freq/2-rise} {8*1/freq} {2*reps})
SYMBOL voltage 144 1472 R90
WINDOW 123 -77 30 VRight 2
WINDOW 39 0 0 Left 0
WINDOW 0 -51 28 VRight 2
WINDOW 3 46 -379 VRight 2
SYMATTR InstName V_BIT4
SYMATTR Value PULSE(0 {VCC} 0 {rise} {rise} {16*1/freq/2-rise} {16*1/freq} {1*reps})
SYMBOL res -1104 1440 R0
SYMATTR InstName R100
SYMATTR Value 10Mega
SYMBOL res -944 1440 R0
SYMATTR InstName R101
SYMATTR Value 10Mega
SYMBOL res -784 1440 R0
SYMATTR InstName R102
SYMATTR Value 10Mega
SYMBOL res -624 1440 R0
SYMATTR InstName R103
SYMATTR Value 10Mega
SYMBOL res -464 1440 R0
SYMATTR InstName R104
SYMATTR Value 10Mega
SYMBOL npn 3120 1232 R0
SYMATTR InstName Q2
SYMATTR Value 2N3904
SYMBOL schottky 3088 1200 R270
WINDOW 0 32 32 VTop 2
WINDOW 3 0 32 VBottom 2
SYMATTR InstName D1
SYMATTR Value BAT54
SYMATTR Description Diode
SYMATTR Type diode
SYMBOL npn 2832 976 R0
SYMATTR InstName Q1
SYMATTR Value 2N3904
SYMBOL res 3168 592 R0
SYMATTR InstName R3
SYMATTR Value 100
SYMBOL res 2880 1104 R0
SYMATTR InstName R1
SYMATTR Value 220
SYMBOL res 2880 1328 R0
SYMATTR InstName R2
SYMATTR Value 220
SYMBOL res 0 656 R90
WINDOW 0 0 56 VBottom 2
WINDOW 3 32 56 VTop 2
SYMATTR InstName R200
SYMATTR Value 1m
SYMBOL cap -320 208 R0
SYMATTR InstName C2
SYMATTR Value 50p
SYMBOL npn 2672 528 R0
SYMATTR InstName Q5
SYMATTR Value 2N3904
SYMBOL pnp 2384 1184 M180
SYMATTR InstName Q7
SYMATTR Value 2N3906
SYMBOL pnp 2256 1360 M180
SYMATTR InstName Q8
SYMATTR Value 2N3906
SYMBOL pnp 2144 752 M180
SYMATTR InstName Q9
SYMATTR Value 2N3906
SYMBOL pnp 2016 928 M180
SYMATTR InstName Q10
SYMATTR Value 2N3906
SYMBOL res 2192 432 R0
SYMATTR InstName R4
SYMATTR Value 520
SYMBOL res 2432 432 R0
SYMATTR InstName R5
SYMATTR Value 520
TEXT -784 1200 Left 2 !.tran {16*reps/freq}
TEXT -784 1256 Left 2 ;.ac oct 100 1k 100mega
TEXT -784 1288 Left 2 ;.dc V_BIT0 0 {VCC} 0.01
TEXT -1064 856 Left 2 !.param VCC=3.3
TEXT -1064 888 Left 2 !.param freq=10Mega
TEXT -1064 920 Left 2 !.param rise=1n
TEXT -1064 952 Left 2 !.param reps=1
TEXT -1064 1096 Left 2 !.step  temp -25 125 25
