Version 4.1
SHEET 1 14868 10612
WIRE 1936 2048 1696 2048
WIRE 2224 2048 1936 2048
WIRE 2224 2112 2224 2048
WIRE 1936 2208 1936 2048
WIRE 1760 2256 1728 2256
WIRE 1872 2256 1760 2256
WIRE 2224 2304 2224 2192
WIRE 2320 2304 2224 2304
WIRE 2416 2304 2320 2304
WIRE 1936 2352 1936 2304
WIRE 3280 2384 3280 2336
WIRE 3392 2384 3392 2336
WIRE 3504 2384 3504 2336
WIRE 2128 2416 2064 2416
WIRE 2224 2416 2224 2304
WIRE 2224 2416 2192 2416
WIRE 2224 2464 2224 2416
WIRE 1936 2512 1936 2432
WIRE 2064 2512 2064 2416
WIRE 2064 2512 1936 2512
WIRE 2160 2512 2064 2512
WIRE 3280 2512 3280 2448
WIRE 3392 2512 3392 2448
WIRE 3504 2512 3504 2448
WIRE 1936 2576 1936 2512
WIRE 528 2704 464 2704
WIRE 672 2704 528 2704
WIRE 832 2704 752 2704
WIRE 896 2704 832 2704
WIRE 1936 2704 1936 2656
WIRE 1936 2704 1632 2704
WIRE 2224 2704 2224 2560
WIRE 2224 2704 1936 2704
WIRE 2416 2704 2224 2704
WIRE 1632 2752 1632 2704
WIRE 16 2944 16 2912
WIRE 1616 3008 1568 3008
WIRE 1808 3008 1696 3008
WIRE 2096 3008 1808 3008
WIRE 2432 3008 2096 3008
WIRE 3168 3008 3120 3008
WIRE 3360 3008 3248 3008
WIRE 3648 3008 3360 3008
WIRE 3952 3008 3648 3008
WIRE 16 3040 16 3024
WIRE 3952 3056 3952 3008
WIRE 2096 3072 2096 3008
WIRE 2432 3072 2432 3008
WIRE 3648 3072 3648 3008
WIRE 3888 3104 3776 3104
WIRE 1808 3168 1808 3008
WIRE 3360 3168 3360 3008
WIRE 1648 3216 1600 3216
WIRE 1744 3216 1648 3216
WIRE 3136 3216 3072 3216
WIRE 3296 3216 3136 3216
WIRE 3648 3232 3648 3152
WIRE 3776 3232 3776 3104
WIRE 3776 3232 3648 3232
WIRE 3856 3232 3776 3232
WIRE 3952 3232 3952 3152
WIRE 3952 3232 3920 3232
WIRE 2096 3264 2096 3152
WIRE 2192 3264 2096 3264
WIRE 2272 3264 2192 3264
WIRE 2432 3264 2432 3152
WIRE 2528 3264 2432 3264
WIRE 2624 3264 2528 3264
WIRE 3648 3264 3648 3232
WIRE 3360 3312 3360 3264
WIRE 1984 3376 1936 3376
WIRE 2096 3376 2096 3264
WIRE 2096 3376 2064 3376
WIRE 2272 3376 2272 3264
WIRE 2336 3376 2272 3376
WIRE 2432 3376 2432 3264
WIRE 2432 3376 2400 3376
WIRE 3552 3376 3488 3376
WIRE 3648 3376 3648 3344
WIRE 3648 3376 3616 3376
WIRE 2096 3424 2096 3376
WIRE 2432 3424 2432 3376
WIRE 3648 3424 3648 3376
WIRE 1808 3472 1808 3264
WIRE 1840 3472 1808 3472
WIRE 1936 3472 1936 3376
WIRE 1936 3472 1920 3472
WIRE 2032 3472 1936 3472
WIRE 2272 3472 2272 3376
WIRE 2368 3472 2272 3472
WIRE 3360 3472 3360 3392
WIRE 3488 3472 3488 3376
WIRE 3488 3472 3360 3472
WIRE 3584 3472 3488 3472
WIRE 3952 3472 3952 3232
WIRE 4032 3472 3952 3472
WIRE 4096 3472 4032 3472
WIRE 3952 3520 3952 3472
WIRE 3360 3536 3360 3472
WIRE 2096 3664 2096 3520
WIRE 2096 3664 1504 3664
WIRE 2432 3664 2432 3520
WIRE 2432 3664 2096 3664
WIRE 2624 3664 2432 3664
WIRE 3360 3664 3360 3616
WIRE 3360 3664 3072 3664
WIRE 3648 3664 3648 3520
WIRE 3648 3664 3360 3664
WIRE 3952 3664 3952 3600
WIRE 3952 3664 3648 3664
WIRE 4096 3664 3952 3664
WIRE 1504 3712 1504 3664
WIRE 3072 3712 3072 3664
FLAG 16 3040 0
FLAG 896 2912 BIT0
FLAG 16 2912 VCC
FLAG 816 2912 0
FLAG 896 3072 BIT1
FLAG 816 3072 0
FLAG 896 3216 BIT2
FLAG 816 3216 0
FLAG 896 3360 BIT3
FLAG 816 3360 0
FLAG 896 3504 BIT4
FLAG 816 3504 0
FLAG -320 3488 BIT0
FLAG -320 3568 0
FLAG -160 3488 BIT1
FLAG -160 3568 0
FLAG 0 3488 BIT2
FLAG 0 3568 0
FLAG 160 3488 BIT3
FLAG 160 3568 0
FLAG 320 3488 BIT4
FLAG 320 3568 0
FLAG 1632 2752 0
FLAG 2320 2304 OUT
FLAG 1760 2256 IN
FLAG 1696 2048 VCC
FLAG 528 2704 BIT0
FLAG 832 2704 IN
FLAG 1504 3712 0
FLAG 2192 3264 OUT_LIN
FLAG 1648 3216 IN
FLAG 1568 3008 VCC
FLAG 2528 3264 OUT_NN
FLAG 4032 3472 OUT_NN2
FLAG 3120 3008 VCC
FLAG 3072 3712 0
FLAG 3136 3216 IN
FLAG 3504 2512 0
FLAG 3504 2336 OUT_NN2
FLAG 3392 2512 0
FLAG 3392 2336 OUT_NN
FLAG 3280 2512 0
FLAG 3280 2336 OUT
SYMBOL voltage 16 2928 R0
WINDOW 123 0 0 Left 0
WINDOW 39 0 0 Left 0
SYMATTR InstName VCC
SYMATTR Value {VCC}
SYMBOL voltage 912 2912 R90
WINDOW 123 -77 30 VRight 2
WINDOW 39 0 0 Left 0
WINDOW 0 -51 28 VRight 2
WINDOW 3 46 -379 VRight 2
SYMATTR Value2 AC 5
SYMATTR InstName V_BIT0
SYMATTR Value PULSE(0 {VCC} 0 {rise} {rise} {1/freq/2-rise} {1/freq} {16*reps})
SYMBOL voltage 912 3072 R90
WINDOW 123 -77 30 VRight 2
WINDOW 39 0 0 Left 0
WINDOW 0 -51 28 VRight 2
WINDOW 3 46 -379 VRight 2
SYMATTR InstName V_BIT1
SYMATTR Value PULSE(0 {VCC} 0 {rise} {rise} {2*1/freq/2-rise} {2*1/freq} {8*reps})
SYMBOL voltage 912 3216 R90
WINDOW 123 -77 30 VRight 2
WINDOW 39 0 0 Left 0
WINDOW 0 -51 28 VRight 2
WINDOW 3 46 -379 VRight 2
SYMATTR InstName V_BIT2
SYMATTR Value PULSE(0 {VCC} 0 {rise} {rise} {4*1/freq/2-rise} {4*1/freq} {4*reps})
SYMBOL voltage 912 3360 R90
WINDOW 123 -77 30 VRight 2
WINDOW 39 0 0 Left 0
WINDOW 0 -51 28 VRight 2
WINDOW 3 46 -379 VRight 2
SYMATTR InstName V_BIT3
SYMATTR Value PULSE(0 {VCC} 0 {rise} {rise} {8*1/freq/2-rise} {8*1/freq} {2*reps})
SYMBOL voltage 912 3504 R90
WINDOW 123 -77 30 VRight 2
WINDOW 39 0 0 Left 0
WINDOW 0 -51 28 VRight 2
WINDOW 3 46 -379 VRight 2
SYMATTR InstName V_BIT4
SYMATTR Value PULSE(0 {VCC} 0 {rise} {rise} {16*1/freq/2-rise} {16*1/freq} {1*reps})
SYMBOL res -336 3472 R0
SYMATTR InstName R100
SYMATTR Value 10Mega
SYMBOL res -176 3472 R0
SYMATTR InstName R101
SYMATTR Value 10Mega
SYMBOL res -16 3472 R0
SYMATTR InstName R102
SYMATTR Value 10Mega
SYMBOL res 144 3472 R0
SYMATTR InstName R103
SYMATTR Value 10Mega
SYMBOL res 304 3472 R0
SYMATTR InstName R104
SYMATTR Value 10Mega
SYMBOL npn 2160 2464 R0
SYMATTR InstName Q2
SYMATTR Value 2N3904
SYMBOL schottky 2128 2432 R270
WINDOW 0 32 32 VTop 2
WINDOW 3 0 32 VBottom 2
SYMATTR InstName D1
SYMATTR Value BAT54
SYMATTR Description Diode
SYMATTR Type diode
SYMBOL npn 1872 2208 R0
SYMATTR InstName Q1
SYMATTR Value 2N3904
SYMBOL res 2208 2096 R0
SYMATTR InstName R3
SYMATTR Value 100
SYMBOL res 1920 2336 R0
SYMATTR InstName R1
SYMATTR Value 220
SYMBOL res 1920 2560 R0
SYMATTR InstName R2
SYMATTR Value 220
SYMBOL res 768 2688 R90
WINDOW 0 0 56 VBottom 2
WINDOW 3 32 56 VTop 2
SYMATTR InstName R200
SYMATTR Value 1m
SYMBOL npn 2032 3424 R0
SYMATTR InstName Q5
SYMATTR Value 2N3904
SYMBOL npn 1744 3168 R0
SYMATTR InstName Q6
SYMATTR Value 2N3904
SYMBOL res 2080 3056 R0
SYMATTR InstName R4
SYMATTR Value 200
SYMBOL res 2080 3360 R90
WINDOW 0 0 56 VBottom 2
WINDOW 3 32 56 VTop 2
SYMATTR InstName R5
SYMATTR Value 200
SYMBOL res 1936 3456 R90
WINDOW 0 0 56 VBottom 2
WINDOW 3 32 56 VTop 2
SYMATTR InstName R6
SYMATTR Value 2000
SYMBOL npn 2368 3424 R0
SYMATTR InstName Q7
SYMATTR Value 2N3904
SYMBOL schottky 2336 3392 R270
WINDOW 0 32 32 VTop 2
WINDOW 3 0 32 VBottom 2
SYMATTR InstName D3
SYMATTR Value BAT54
SYMATTR Description Diode
SYMATTR Type diode
SYMBOL res 2416 3056 R0
SYMATTR InstName R9
SYMATTR Value 100
SYMBOL res 1712 2992 R90
WINDOW 0 0 56 VBottom 2
WINDOW 3 32 56 VTop 2
SYMATTR InstName R10
SYMATTR Value 1m
SYMBOL npn 3584 3424 R0
SYMATTR InstName Q8
SYMATTR Value 2N3904
SYMBOL schottky 3552 3392 R270
WINDOW 0 32 32 VTop 2
WINDOW 3 0 32 VBottom 2
SYMATTR InstName D4
SYMATTR Value BAT54
SYMATTR Description Diode
SYMATTR Type diode
SYMBOL npn 3296 3168 R0
SYMATTR InstName Q9
SYMATTR Value 2N3904
SYMBOL res 3632 3056 R0
SYMATTR InstName R14
SYMATTR Value 75
SYMBOL schottky 3920 3216 R90
WINDOW 0 0 32 VBottom 2
WINDOW 3 32 32 VTop 2
SYMATTR InstName D5
SYMATTR Value BAT54
SYMATTR Description Diode
SYMATTR Type diode
SYMBOL pnp 3888 3152 M180
SYMATTR InstName Q10
SYMATTR Value 2N3906
SYMBOL res 3632 3248 R0
SYMATTR InstName R15
SYMATTR Value 100
SYMBOL res 3936 3504 R0
SYMATTR InstName R16
SYMATTR Value 100
SYMBOL res 3344 3296 R0
SYMATTR InstName R17
SYMATTR Value 220
SYMBOL res 3344 3520 R0
SYMATTR InstName R18
SYMATTR Value 220
SYMBOL res 3264 2992 R90
WINDOW 0 0 56 VBottom 2
WINDOW 3 32 56 VTop 2
SYMATTR InstName R19
SYMATTR Value 1m
SYMBOL cap 3488 2384 R0
SYMATTR InstName C4
SYMATTR Value 50p
SYMBOL cap 3376 2384 R0
SYMATTR InstName C1
SYMATTR Value 50p
SYMBOL cap 3264 2384 R0
SYMATTR InstName C5
SYMATTR Value 50p
TEXT -16 3232 Left 2 !.tran {2*reps/freq}
TEXT -16 3288 Left 2 ;.ac oct 100 1k 100mega
TEXT -16 3320 Left 2 ;.dc V_BIT0 0 {VCC} 0.01
TEXT -296 2888 Left 2 !.param VCC=3.3
TEXT -296 2920 Left 2 !.param freq=10Mega
TEXT -296 2952 Left 2 !.param rise=1n
TEXT -296 2984 Left 2 !.param reps=1
TEXT -296 3128 Left 2 !.step  temp -25 125 25
TEXT 1936 2960 Left 2 ;Non-inverting buffer
TEXT 3488 2968 Left 2 ;Non-inverting buffer
