Version 4
SHEET 1 14868 10612
WIRE 2720 368 2656 368
WIRE 3200 368 2800 368
WIRE 3712 368 3200 368
WIRE 3712 544 3712 368
WIRE -240 672 -304 672
WIRE -96 672 -240 672
WIRE 64 672 -16 672
WIRE 128 672 64 672
WIRE 3200 800 3200 368
WIRE 2608 848 2576 848
WIRE 2640 848 2608 848
WIRE 3136 848 2720 848
WIRE 1648 880 1408 880
WIRE 1936 880 1648 880
WIRE -752 912 -752 880
WIRE 1936 944 1936 880
WIRE -752 1008 -752 992
WIRE 1648 1040 1648 880
WIRE 1472 1088 1440 1088
WIRE 1584 1088 1472 1088
WIRE 3200 1088 3200 896
WIRE 1936 1136 1936 1024
WIRE 2032 1136 1936 1136
WIRE 2128 1136 2032 1136
WIRE 3712 1136 3712 624
WIRE 3808 1136 3712 1136
WIRE 3904 1136 3808 1136
WIRE 1648 1184 1648 1136
WIRE 1840 1248 1776 1248
WIRE 1936 1248 1936 1136
WIRE 1936 1248 1904 1248
WIRE 3616 1248 3552 1248
WIRE 3712 1248 3712 1136
WIRE 3712 1248 3680 1248
WIRE 1936 1296 1936 1248
WIRE 3712 1296 3712 1248
WIRE 1648 1344 1648 1264
WIRE 1776 1344 1776 1248
WIRE 1776 1344 1648 1344
WIRE 1872 1344 1776 1344
WIRE 3200 1344 3200 1168
WIRE 3552 1344 3552 1248
WIRE 3552 1344 3200 1344
WIRE 3648 1344 3552 1344
WIRE 3904 1376 3904 1136
WIRE 1648 1408 1648 1344
WIRE 1648 1536 1648 1488
WIRE 1648 1536 1344 1536
WIRE 1936 1536 1936 1392
WIRE 1936 1536 1648 1536
WIRE 2128 1536 1936 1536
WIRE 1344 1584 1344 1536
WIRE 3200 1600 3200 1344
WIRE 3200 1728 3200 1680
WIRE 3200 1728 2592 1728
WIRE 3712 1728 3712 1392
WIRE 3712 1728 3200 1728
WIRE 3904 1728 3904 1440
WIRE 3904 1728 3712 1728
WIRE 2592 1776 2592 1728
FLAG -752 1008 0
FLAG 128 880 BIT0
FLAG -752 880 VCC
FLAG 48 880 0
FLAG 128 1040 BIT1
FLAG 48 1040 0
FLAG 128 1184 BIT2
FLAG 48 1184 0
FLAG 128 1328 BIT3
FLAG 48 1328 0
FLAG 128 1472 BIT4
FLAG 48 1472 0
FLAG -1088 1456 BIT0
FLAG -1088 1536 0
FLAG -928 1456 BIT1
FLAG -928 1536 0
FLAG -768 1456 BIT2
FLAG -768 1536 0
FLAG -608 1456 BIT3
FLAG -608 1536 0
FLAG -448 1456 BIT4
FLAG -448 1536 0
FLAG 1344 1584 0
FLAG 2032 1136 OUT
FLAG 1472 1088 IN
FLAG 1408 880 VCC
FLAG 2592 1776 0
FLAG 3808 1136 OUT2
FLAG 2608 848 IN
FLAG 2656 368 VCC
FLAG -240 672 BIT0
FLAG 64 672 IN
SYMBOL voltage -752 896 R0
WINDOW 123 0 0 Left 0
WINDOW 39 0 0 Left 0
SYMATTR InstName VCC
SYMATTR Value {VCC}
SYMBOL voltage 144 880 R90
WINDOW 123 -77 30 VRight 2
WINDOW 39 0 0 Left 0
WINDOW 0 -51 28 VRight 2
WINDOW 3 46 -379 VRight 2
SYMATTR Value2 AC 5
SYMATTR InstName V_BIT0
SYMATTR Value PULSE(0 {VCC} 0 {rise} {rise} {1/freq/2-rise} {1/freq} {16*reps})
SYMBOL voltage 144 1040 R90
WINDOW 123 -77 30 VRight 2
WINDOW 39 0 0 Left 0
WINDOW 0 -51 28 VRight 2
WINDOW 3 46 -379 VRight 2
SYMATTR InstName V_BIT1
SYMATTR Value PULSE(0 {VCC} 0 {rise} {rise} {2*1/freq/2-rise} {2*1/freq} {8*reps})
SYMBOL voltage 144 1184 R90
WINDOW 123 -77 30 VRight 2
WINDOW 39 0 0 Left 0
WINDOW 0 -51 28 VRight 2
WINDOW 3 46 -379 VRight 2
SYMATTR InstName V_BIT2
SYMATTR Value PULSE(0 {VCC} 0 {rise} {rise} {4*1/freq/2-rise} {4*1/freq} {4*reps})
SYMBOL voltage 144 1328 R90
WINDOW 123 -77 30 VRight 2
WINDOW 39 0 0 Left 0
WINDOW 0 -51 28 VRight 2
WINDOW 3 46 -379 VRight 2
SYMATTR InstName V_BIT3
SYMATTR Value PULSE(0 {VCC} 0 {rise} {rise} {8*1/freq/2-rise} {8*1/freq} {2*reps})
SYMBOL voltage 144 1472 R90
WINDOW 123 -77 30 VRight 2
WINDOW 39 0 0 Left 0
WINDOW 0 -51 28 VRight 2
WINDOW 3 46 -379 VRight 2
SYMATTR InstName V_BIT4
SYMATTR Value PULSE(0 {VCC} 0 {rise} {rise} {16*1/freq/2-rise} {16*1/freq} {1*reps})
SYMBOL res -1104 1440 R0
SYMATTR InstName R100
SYMATTR Value 10Mega
SYMBOL res -944 1440 R0
SYMATTR InstName R101
SYMATTR Value 10Mega
SYMBOL res -784 1440 R0
SYMATTR InstName R102
SYMATTR Value 10Mega
SYMBOL res -624 1440 R0
SYMATTR InstName R103
SYMATTR Value 10Mega
SYMBOL res -464 1440 R0
SYMATTR InstName R104
SYMATTR Value 10Mega
SYMBOL npn 1872 1296 R0
SYMATTR InstName Q2
SYMATTR Value 2N3904
SYMBOL schottky 1840 1264 R270
WINDOW 0 32 32 VTop 2
WINDOW 3 0 32 VBottom 2
SYMATTR InstName D1
SYMATTR Value BAT54
SYMATTR Description Diode
SYMATTR Type diode
SYMBOL npn 1584 1040 R0
SYMATTR InstName Q1
SYMATTR Value 2N3904
SYMBOL res 1920 928 R0
SYMATTR InstName R3
SYMATTR Value 100
SYMBOL res 1632 1168 R0
SYMATTR InstName R1
SYMATTR Value 220
SYMBOL res 1632 1392 R0
SYMATTR InstName R2
SYMATTR Value 220
SYMBOL npn 3648 1296 R0
SYMATTR InstName Q4
SYMATTR Value 2N3904
SYMBOL schottky 3616 1264 R270
WINDOW 0 32 32 VTop 2
WINDOW 3 0 32 VBottom 2
SYMATTR InstName D2
SYMATTR Value BAT54
SYMATTR Description Diode
SYMATTR Type diode
SYMBOL res 2704 384 R270
WINDOW 0 32 56 VTop 2
WINDOW 3 0 56 VBottom 2
SYMATTR InstName R7
SYMATTR Value 1m
SYMBOL res 2624 864 R270
WINDOW 0 32 56 VTop 2
WINDOW 3 0 56 VBottom 2
SYMATTR InstName R8
SYMATTR Value 1m
SYMBOL npn 3136 800 R0
SYMATTR InstName Q3
SYMATTR Value 2N3904
SYMBOL res 3696 528 R0
SYMATTR InstName R11
SYMATTR Value 100
SYMBOL res 3184 1072 R0
SYMATTR InstName R12
SYMATTR Value 220
SYMBOL res 3184 1584 R0
SYMATTR InstName R13
SYMATTR Value 220
SYMBOL cap 3888 1376 R0
SYMATTR InstName C1
SYMATTR Value 50p
SYMBOL res 0 656 R90
WINDOW 0 0 56 VBottom 2
WINDOW 3 32 56 VTop 2
SYMATTR InstName R200
SYMATTR Value 1m
TEXT -784 1200 Left 2 ;.tran {16*reps/freq}
TEXT -784 1256 Left 2 ;.ac oct 100 1k 100mega
TEXT -784 1288 Left 2 !.dc V_BIT0 0 {VCC} 0.01
TEXT -1064 856 Left 2 !.param VCC=3.3
TEXT -1064 888 Left 2 !.param freq=10Mega
TEXT -1064 920 Left 2 !.param rise=1n
TEXT -1064 952 Left 2 !.param reps=1
TEXT -1064 1096 Left 2 !.step  temp -25 125 25
