Version 4.1
SHEET 1 13860 8516
WIRE -528 32 -528 0
WIRE -528 128 -528 112
WIRE 1168 2304 1104 2304
WIRE 1648 2304 1248 2304
WIRE 2160 2304 1648 2304
WIRE 2336 2304 2160 2304
WIRE 3312 2304 3248 2304
WIRE 3424 2304 3392 2304
WIRE 3616 2304 3424 2304
WIRE 3872 2304 3616 2304
WIRE 4048 2304 3872 2304
WIRE 4672 2304 4048 2304
WIRE 4848 2304 4672 2304
WIRE -992 2320 -1056 2320
WIRE -512 2320 -912 2320
WIRE 0 2320 -512 2320
WIRE 176 2320 0 2320
WIRE 2160 2320 2160 2304
WIRE 4672 2320 4672 2304
WIRE 0 2336 0 2320
WIRE 1648 2336 1648 2304
WIRE 3872 2336 3872 2304
WIRE 4048 2336 4048 2304
WIRE -512 2352 -512 2320
WIRE 3424 2368 3424 2304
WIRE 3616 2368 3616 2304
WIRE 2160 2432 2160 2400
WIRE 3872 2432 3872 2416
WIRE 4672 2432 4672 2400
WIRE 0 2448 0 2416
WIRE 1248 2480 1152 2480
WIRE 1328 2480 1248 2480
WIRE 1440 2480 1328 2480
WIRE 1536 2480 1440 2480
WIRE 1856 2480 1536 2480
WIRE 2000 2480 1936 2480
WIRE 2096 2480 2000 2480
WIRE 3616 2480 3616 2448
WIRE 3616 2480 3552 2480
WIRE 3664 2480 3616 2480
WIRE 3808 2480 3664 2480
WIRE 4368 2480 4272 2480
WIRE 4512 2480 4448 2480
WIRE 4608 2480 4512 2480
WIRE -720 2496 -832 2496
WIRE -624 2496 -720 2496
WIRE -304 2496 -624 2496
WIRE -160 2496 -224 2496
WIRE -64 2496 -160 2496
WIRE 4272 2544 4272 2480
WIRE 1440 2560 1440 2480
WIRE 3664 2560 3664 2480
WIRE -720 2576 -720 2496
WIRE 2000 2576 2000 2480
WIRE 2048 2576 2000 2576
WIRE 2160 2576 2160 2528
WIRE 2160 2576 2112 2576
WIRE 4512 2576 4512 2480
WIRE 4560 2576 4512 2576
WIRE 4672 2576 4672 2528
WIRE 4672 2576 4624 2576
WIRE -160 2592 -160 2496
WIRE -112 2592 -160 2592
WIRE 0 2592 0 2544
WIRE 0 2592 -48 2592
WIRE 4208 2592 4160 2592
WIRE 896 2608 864 2608
WIRE 928 2608 896 2608
WIRE 1376 2608 1008 2608
WIRE 3120 2608 3088 2608
WIRE 3152 2608 3120 2608
WIRE 3600 2608 3232 2608
WIRE -1104 2624 -1136 2624
WIRE -1072 2624 -1104 2624
WIRE -784 2624 -992 2624
WIRE 2160 2624 2160 2576
WIRE 4672 2624 4672 2576
WIRE 0 2640 0 2592
WIRE 1328 2672 1328 2480
WIRE 3552 2672 3552 2480
WIRE 896 2720 864 2720
WIRE 928 2720 896 2720
WIRE 1264 2720 1008 2720
WIRE 3120 2720 3088 2720
WIRE 3152 2720 3120 2720
WIRE 3488 2720 3232 2720
WIRE 4048 2752 4048 2416
WIRE 3424 2800 3424 2448
WIRE 3424 2800 3376 2800
WIRE 3472 2800 3424 2800
WIRE 3984 2800 3472 2800
WIRE 1248 2832 1248 2480
WIRE 3472 2832 3472 2800
WIRE 2160 2848 2160 2704
WIRE 2256 2848 2160 2848
WIRE 4672 2848 4672 2704
WIRE 4768 2848 4672 2848
WIRE 0 2864 0 2720
WIRE 96 2864 0 2864
WIRE 880 2880 848 2880
WIRE 912 2880 880 2880
WIRE 1184 2880 992 2880
WIRE 3104 2880 3072 2880
WIRE 3136 2880 3104 2880
WIRE 3408 2880 3216 2880
WIRE 1648 2912 1648 2416
WIRE -512 2928 -512 2432
WIRE 1536 2960 1536 2480
WIRE 1584 2960 1536 2960
WIRE -624 2976 -624 2496
WIRE -576 2976 -624 2976
WIRE 2160 2992 2160 2848
WIRE 4672 2992 4672 2848
WIRE -832 3008 -832 2496
WIRE 0 3008 0 2864
WIRE 1152 3008 1152 2480
WIRE 3376 3008 3376 2800
WIRE -1104 3056 -1136 3056
WIRE -1072 3056 -1104 3056
WIRE -896 3056 -992 3056
WIRE 880 3056 848 3056
WIRE 912 3056 880 3056
WIRE 1088 3056 992 3056
WIRE 3104 3056 3072 3056
WIRE 3136 3056 3104 3056
WIRE 3312 3056 3216 3056
WIRE 2064 3104 2000 3104
WIRE 2160 3104 2160 3072
WIRE 2160 3104 2128 3104
WIRE 4576 3104 4512 3104
WIRE 4672 3104 4672 3072
WIRE 4672 3104 4640 3104
WIRE -96 3120 -160 3120
WIRE 0 3120 0 3088
WIRE 0 3120 -32 3120
WIRE 2160 3152 2160 3104
WIRE 4672 3152 4672 3104
WIRE 0 3168 0 3120
WIRE 1648 3200 1648 3008
WIRE 1840 3200 1648 3200
WIRE 2000 3200 2000 3104
WIRE 2000 3200 1920 3200
WIRE 2096 3200 2000 3200
WIRE 3872 3200 3872 2528
WIRE 4048 3200 4048 2848
WIRE 4048 3200 3872 3200
WIRE 4160 3200 4160 2592
WIRE 4160 3200 4048 3200
WIRE 4352 3200 4160 3200
WIRE 4512 3200 4512 3104
WIRE 4512 3200 4432 3200
WIRE 4608 3200 4512 3200
WIRE -512 3216 -512 3024
WIRE -320 3216 -512 3216
WIRE -160 3216 -160 3120
WIRE -160 3216 -240 3216
WIRE -64 3216 -160 3216
WIRE 1152 3216 1152 3104
WIRE 1248 3216 1248 2928
WIRE 1328 3216 1328 2768
WIRE 1440 3216 1440 2656
WIRE 3376 3216 3376 3104
WIRE 3472 3216 3472 2928
WIRE 3552 3216 3552 2768
WIRE 3664 3216 3664 2656
WIRE -832 3232 -832 3104
WIRE -720 3232 -720 2672
WIRE 4272 3248 4272 2640
WIRE 2160 3280 2160 3248
WIRE 3872 3280 3872 3200
WIRE 4672 3280 4672 3248
WIRE 0 3296 0 3264
WIRE 1152 3408 1152 3296
WIRE 1152 3408 1040 3408
WIRE 1248 3408 1248 3296
WIRE 1248 3408 1152 3408
WIRE 1328 3408 1328 3296
WIRE 1328 3408 1248 3408
WIRE 1440 3408 1440 3296
WIRE 1440 3408 1328 3408
WIRE 2160 3408 2160 3360
WIRE 2160 3408 1440 3408
WIRE 2336 3408 2160 3408
WIRE 3376 3408 3376 3296
WIRE 3376 3408 3264 3408
WIRE 3472 3408 3472 3296
WIRE 3472 3408 3376 3408
WIRE 3552 3408 3552 3296
WIRE 3552 3408 3472 3408
WIRE 3664 3408 3664 3296
WIRE 3664 3408 3552 3408
WIRE 3872 3408 3872 3360
WIRE 3872 3408 3664 3408
WIRE 4272 3408 4272 3328
WIRE 4272 3408 3872 3408
WIRE 4672 3408 4672 3360
WIRE 4672 3408 4272 3408
WIRE 4848 3408 4672 3408
WIRE -832 3424 -832 3312
WIRE -832 3424 -1120 3424
WIRE -720 3424 -720 3312
WIRE -720 3424 -832 3424
WIRE 0 3424 0 3376
WIRE 0 3424 -720 3424
WIRE 176 3424 0 3424
WIRE 1040 3456 1040 3408
WIRE 3264 3456 3264 3408
WIRE -1120 3472 -1120 3424
WIRE 1088 3888 1024 3888
WIRE 1232 3888 1168 3888
WIRE 1328 3888 1232 3888
WIRE 1408 3888 1328 3888
WIRE 1520 3888 1408 3888
WIRE 2080 3888 1520 3888
WIRE 2256 3888 2080 3888
WIRE 3472 3888 3408 3888
WIRE 3696 3888 3552 3888
WIRE 3792 3888 3696 3888
WIRE 3904 3888 3792 3888
WIRE 4464 3888 3904 3888
WIRE 4784 3888 4464 3888
WIRE 5264 3888 4784 3888
WIRE 5696 3888 5264 3888
WIRE 6144 3888 5696 3888
WIRE 6672 3888 6144 3888
WIRE 6816 3888 6672 3888
WIRE 6960 3888 6816 3888
WIRE 7104 3888 6960 3888
WIRE 7216 3888 7104 3888
WIRE 8016 3888 7216 3888
WIRE 8192 3888 8016 3888
WIRE -1024 3904 -1088 3904
WIRE -704 3904 -944 3904
WIRE -592 3904 -704 3904
WIRE -32 3904 -592 3904
WIRE 144 3904 -32 3904
WIRE 2080 3904 2080 3888
WIRE 4464 3904 4464 3888
WIRE 8016 3904 8016 3888
WIRE -32 3920 -32 3904
WIRE 1232 3920 1232 3888
WIRE 1328 3920 1328 3888
WIRE 1408 3920 1408 3888
WIRE 1520 3920 1520 3888
WIRE 3696 3920 3696 3888
WIRE 3792 3920 3792 3888
WIRE 3904 3920 3904 3888
WIRE 6672 3920 6672 3888
WIRE 6816 3920 6816 3888
WIRE 6960 3920 6960 3888
WIRE 7104 3920 7104 3888
WIRE 7216 3920 7216 3888
WIRE -704 3936 -704 3904
WIRE -592 3936 -592 3904
WIRE 5264 3952 5264 3888
WIRE 5696 3952 5696 3888
WIRE 6144 3952 6144 3888
WIRE 2080 4016 2080 3984
WIRE -32 4032 -32 4000
WIRE 1776 4064 1712 4064
WIRE 1920 4064 1856 4064
WIRE 2016 4064 1920 4064
WIRE 9312 4064 9040 4064
WIRE -336 4080 -400 4080
WIRE -192 4080 -256 4080
WIRE -96 4080 -192 4080
WIRE 9312 4080 9056 4080
WIRE 9312 4096 9072 4096
WIRE 9456 4096 9376 4096
WIRE 7216 4112 7216 4000
WIRE 8016 4112 8016 3984
WIRE 9312 4112 9264 4112
WIRE 5056 4128 3520 4128
WIRE 1520 4144 1520 4000
WIRE 1712 4144 1712 4064
WIRE -592 4160 -592 4016
WIRE -400 4160 -400 4080
WIRE 1920 4160 1920 4064
WIRE 1968 4160 1920 4160
WIRE 2080 4160 2080 4112
WIRE 2080 4160 2032 4160
WIRE 5024 4160 3552 4160
WIRE 5264 4160 5264 4032
WIRE 5264 4160 5200 4160
WIRE 5312 4160 5264 4160
WIRE 5440 4160 5312 4160
WIRE 7152 4160 5440 4160
WIRE 7712 4160 7616 4160
WIRE 7856 4160 7792 4160
WIRE 7952 4160 7856 4160
WIRE -192 4176 -192 4080
WIRE -144 4176 -192 4176
WIRE -32 4176 -32 4128
WIRE -32 4176 -80 4176
WIRE 9056 4176 9056 4080
WIRE 9312 4176 9056 4176
WIRE 9440 4176 9376 4176
WIRE 976 4192 944 4192
WIRE 1008 4192 976 4192
WIRE 1456 4192 1088 4192
WIRE 4992 4192 3584 4192
WIRE 9072 4192 9072 4096
WIRE 9312 4192 9072 4192
WIRE -1136 4208 -1168 4208
WIRE -1104 4208 -1136 4208
WIRE -656 4208 -1024 4208
WIRE 2080 4208 2080 4160
WIRE 4464 4208 4464 3984
WIRE 9312 4208 9200 4208
WIRE -32 4224 -32 4176
WIRE 7616 4224 7616 4160
WIRE 1408 4240 1408 4000
WIRE -704 4256 -704 4016
WIRE 4160 4256 4096 4256
WIRE 4304 4256 4240 4256
WIRE 4400 4256 4304 4256
WIRE 7104 4256 7104 4000
WIRE 7856 4256 7856 4160
WIRE 7904 4256 7856 4256
WIRE 8016 4256 8016 4208
WIRE 8016 4256 7968 4256
WIRE 7552 4272 7504 4272
WIRE 976 4288 944 4288
WIRE 1008 4288 976 4288
WIRE 1344 4288 1088 4288
WIRE 9040 4288 9040 4064
WIRE 9312 4288 9040 4288
WIRE 9424 4288 9376 4288
WIRE -1136 4304 -1168 4304
WIRE -1104 4304 -1136 4304
WIRE -768 4304 -1024 4304
WIRE 5696 4304 5696 4032
WIRE 5696 4304 5632 4304
WIRE 5744 4304 5696 4304
WIRE 5872 4304 5744 4304
WIRE 7040 4304 5872 4304
WIRE 8016 4304 8016 4256
WIRE 9072 4304 9072 4192
WIRE 9312 4304 9072 4304
WIRE 9200 4320 9200 4208
WIRE 9312 4320 9200 4320
WIRE 2080 4336 2080 4288
WIRE 2176 4336 2080 4336
WIRE 3904 4336 3904 4000
WIRE 4096 4336 4096 4256
WIRE -32 4352 -32 4304
WIRE 64 4352 -32 4352
WIRE 4304 4352 4304 4256
WIRE 4352 4352 4304 4352
WIRE 4464 4352 4464 4304
WIRE 4464 4352 4416 4352
WIRE 5056 4352 5056 4128
WIRE 5536 4352 5056 4352
WIRE 1328 4368 1328 4000
WIRE 5024 4368 5024 4160
WIRE 6016 4368 5024 4368
WIRE 3360 4384 3328 4384
WIRE 3392 4384 3360 4384
WIRE 3520 4384 3520 4128
WIRE 3520 4384 3472 4384
WIRE 3840 4384 3520 4384
WIRE 4992 4384 4992 4192
WIRE 5520 4384 4992 4384
WIRE 5968 4384 5520 4384
WIRE 6960 4384 6960 4000
WIRE 2080 4400 2080 4336
WIRE 4464 4400 4464 4352
WIRE 9040 4400 9040 4288
WIRE 9312 4400 9040 4400
WIRE 9408 4400 9376 4400
WIRE -32 4416 -32 4352
WIRE 976 4416 944 4416
WIRE 1008 4416 976 4416
WIRE 1264 4416 1088 4416
WIRE 9056 4416 9056 4176
WIRE 9312 4416 9056 4416
WIRE 3792 4432 3792 4000
WIRE 6144 4432 6144 4032
WIRE 6144 4432 6080 4432
WIRE 6192 4432 6144 4432
WIRE 6320 4432 6192 4432
WIRE 6896 4432 6320 4432
WIRE 9200 4432 9200 4320
WIRE 9312 4432 9200 4432
WIRE 9456 4448 9456 4096
WIRE 9488 4448 9456 4448
WIRE 9440 4464 9440 4176
WIRE 9488 4464 9440 4464
WIRE 3360 4480 3328 4480
WIRE 3392 4480 3360 4480
WIRE 3552 4480 3552 4160
WIRE 3552 4480 3472 4480
WIRE 3728 4480 3552 4480
WIRE 6816 4480 6816 4000
WIRE 9424 4480 9424 4288
WIRE 9488 4480 9424 4480
WIRE 9408 4496 9408 4400
WIRE 9488 4496 9408 4496
WIRE 9648 4496 9552 4496
WIRE 9488 4512 9440 4512
WIRE 4464 4528 4464 4480
WIRE 6752 4528 4464 4528
WIRE 8016 4528 8016 4384
WIRE 8112 4528 8016 4528
WIRE 1232 4544 1232 4000
WIRE 3696 4544 3696 4000
WIRE 9040 4560 9040 4400
WIRE 9040 4560 8928 4560
WIRE 9104 4560 9040 4560
WIRE 9056 4576 9056 4416
WIRE 9056 4576 8928 4576
WIRE 9104 4576 9056 4576
WIRE 976 4592 944 4592
WIRE 1008 4592 976 4592
WIRE 1168 4592 1088 4592
WIRE 1984 4592 1920 4592
WIRE 2080 4592 2080 4480
WIRE 2080 4592 2048 4592
WIRE 3360 4592 3328 4592
WIRE 3392 4592 3360 4592
WIRE 3584 4592 3584 4192
WIRE 3584 4592 3472 4592
WIRE 3632 4592 3584 4592
WIRE 4464 4592 4464 4528
WIRE 9072 4592 9072 4304
WIRE 9072 4592 8928 4592
WIRE 9104 4592 9072 4592
WIRE 9200 4592 9200 4432
WIRE 9200 4592 9168 4592
WIRE -128 4608 -192 4608
WIRE -32 4608 -32 4496
WIRE -32 4608 -64 4608
WIRE 9104 4608 9008 4608
WIRE 2080 4640 2080 4592
WIRE 5312 4640 5312 4160
WIRE 5744 4640 5744 4304
WIRE 6192 4640 6192 4432
WIRE 9008 4640 9008 4608
WIRE 9008 4640 8928 4640
WIRE -32 4656 -32 4608
WIRE 6672 4656 6672 4000
WIRE 8016 4672 8016 4528
WIRE 1232 4688 1232 4640
WIRE 1328 4688 1328 4464
WIRE 1328 4688 1232 4688
WIRE 1408 4688 1408 4336
WIRE 1408 4688 1328 4688
WIRE 1520 4688 1520 4240
WIRE 1520 4688 1408 4688
WIRE 1648 4688 1648 4192
WIRE 1648 4688 1520 4688
WIRE 1760 4688 1648 4688
WIRE 1920 4688 1920 4592
WIRE 1920 4688 1840 4688
WIRE 2016 4688 1920 4688
WIRE 5056 4688 5056 4352
WIRE 5248 4688 5056 4688
WIRE 5536 4688 5536 4352
WIRE 5680 4688 5536 4688
WIRE 6016 4688 6016 4368
WIRE 6128 4688 6016 4688
WIRE 9264 4688 9264 4112
WIRE 9264 4688 8928 4688
WIRE -704 4704 -704 4352
WIRE -592 4704 -592 4256
WIRE -592 4704 -704 4704
WIRE -464 4704 -464 4208
WIRE -464 4704 -592 4704
WIRE -352 4704 -464 4704
WIRE -192 4704 -192 4608
WIRE -192 4704 -272 4704
WIRE -96 4704 -192 4704
WIRE 6608 4704 6576 4704
WIRE 5200 4720 5200 4160
WIRE 5632 4720 5632 4304
WIRE 6080 4720 6080 4432
WIRE 1712 4752 1712 4240
WIRE -400 4768 -400 4256
WIRE 2080 4768 2080 4736
WIRE 5024 4768 5024 4368
WIRE 5136 4768 5024 4768
WIRE 5520 4768 5520 4384
WIRE 5568 4768 5520 4768
WIRE 5968 4768 5968 4384
WIRE 6016 4768 5968 4768
WIRE 9440 4768 9440 4512
WIRE 9440 4768 8928 4768
WIRE -32 4784 -32 4752
WIRE 4368 4784 4304 4784
WIRE 4464 4784 4464 4672
WIRE 4464 4784 4432 4784
WIRE 7920 4784 7856 4784
WIRE 8016 4784 8016 4752
WIRE 8016 4784 7984 4784
WIRE 4464 4832 4464 4784
WIRE 8016 4832 8016 4784
WIRE 5440 4864 5440 4160
WIRE 5872 4864 5872 4304
WIRE 6320 4864 6320 4432
WIRE 3696 4880 3696 4640
WIRE 3792 4880 3792 4528
WIRE 3792 4880 3696 4880
WIRE 3904 4880 3904 4432
WIRE 3904 4880 3792 4880
WIRE 4032 4880 4032 4384
WIRE 4032 4880 3904 4880
WIRE 4144 4880 4032 4880
WIRE 4304 4880 4304 4784
WIRE 4304 4880 4224 4880
WIRE 4400 4880 4304 4880
WIRE 6672 4880 6672 4752
WIRE 6816 4880 6816 4576
WIRE 6816 4880 6672 4880
WIRE 6960 4880 6960 4480
WIRE 6960 4880 6816 4880
WIRE 7104 4880 7104 4352
WIRE 7104 4880 6960 4880
WIRE 7216 4880 7216 4208
WIRE 7216 4880 7104 4880
WIRE 7504 4880 7504 4272
WIRE 7504 4880 7216 4880
WIRE 7696 4880 7504 4880
WIRE 7856 4880 7856 4784
WIRE 7856 4880 7776 4880
WIRE 7952 4880 7856 4880
WIRE 1712 4896 1712 4832
WIRE 1712 4896 960 4896
WIRE 2080 4896 2080 4848
WIRE 2080 4896 1712 4896
WIRE 2256 4896 2080 4896
WIRE -400 4912 -400 4848
WIRE -400 4912 -1152 4912
WIRE -32 4912 -32 4864
WIRE -32 4912 -400 4912
WIRE 144 4912 -32 4912
WIRE 5376 4912 5360 4912
WIRE 5808 4912 5792 4912
WIRE 6256 4912 6240 4912
WIRE 7616 4928 7616 4320
WIRE 960 4944 960 4896
WIRE 3696 4944 3696 4880
WIRE 4096 4944 4096 4432
WIRE -1152 4960 -1152 4912
WIRE 4464 4960 4464 4928
WIRE 7216 4960 7216 4880
WIRE 8016 4960 8016 4928
WIRE 5200 4992 5200 4816
WIRE 5312 4992 5312 4736
WIRE 5440 4992 5440 4960
WIRE 5632 4992 5632 4816
WIRE 5744 4992 5744 4736
WIRE 5872 4992 5872 4960
WIRE 6080 4992 6080 4816
WIRE 6192 4992 6192 4736
WIRE 6320 4992 6320 4960
WIRE 3696 5088 3696 5024
WIRE 3696 5088 3344 5088
WIRE 4096 5088 4096 5024
WIRE 4096 5088 3696 5088
WIRE 4464 5088 4464 5040
WIRE 4464 5088 4096 5088
WIRE 5200 5088 5200 5072
WIRE 5200 5088 4464 5088
WIRE 5312 5088 5312 5072
WIRE 5312 5088 5200 5088
WIRE 5440 5088 5440 5072
WIRE 5440 5088 5312 5088
WIRE 5632 5088 5632 5072
WIRE 5632 5088 5440 5088
WIRE 5744 5088 5744 5072
WIRE 5744 5088 5632 5088
WIRE 5872 5088 5872 5072
WIRE 5872 5088 5744 5088
WIRE 6080 5088 6080 5072
WIRE 6080 5088 5872 5088
WIRE 6192 5088 6192 5072
WIRE 6192 5088 6080 5088
WIRE 6320 5088 6320 5072
WIRE 6320 5088 6192 5088
WIRE 7216 5088 7216 5040
WIRE 7216 5088 6320 5088
WIRE 7616 5088 7616 5008
WIRE 7616 5088 7216 5088
WIRE 8016 5088 8016 5040
WIRE 8016 5088 7616 5088
WIRE 8192 5088 8016 5088
WIRE 3344 5136 3344 5088
WIRE 5360 5152 5360 4912
WIRE 5792 5152 5792 4912
WIRE 5792 5152 5360 5152
WIRE 6240 5152 6240 4912
WIRE 6240 5152 5792 5152
WIRE 4032 5280 3632 5280
WIRE 4544 5280 4032 5280
WIRE 4784 5280 4784 3888
WIRE 4784 5280 4544 5280
WIRE 4544 5296 4544 5280
WIRE 4032 5312 4032 5280
WIRE 6256 5360 6208 5360
WIRE 6576 5360 6576 4704
WIRE 6576 5360 6256 5360
WIRE 4544 5408 4544 5376
WIRE 3712 5456 3632 5456
WIRE 3824 5456 3712 5456
WIRE 3920 5456 3824 5456
WIRE 4240 5456 3920 5456
WIRE 4384 5456 4320 5456
WIRE 4480 5456 4384 5456
WIRE 3824 5536 3824 5456
WIRE 4384 5552 4384 5456
WIRE 4432 5552 4384 5552
WIRE 4544 5552 4544 5504
WIRE 4544 5552 4496 5552
WIRE 3280 5584 3248 5584
WIRE 3312 5584 3280 5584
WIRE 3760 5584 3392 5584
WIRE 4544 5600 4544 5552
WIRE 3712 5648 3712 5456
WIRE 3280 5696 3248 5696
WIRE 3312 5696 3280 5696
WIRE 3648 5696 3392 5696
WIRE 3632 5808 3632 5456
WIRE 4544 5824 4544 5680
WIRE 5360 5824 5360 5152
WIRE 5360 5824 4544 5824
WIRE 3264 5856 3232 5856
WIRE 3296 5856 3264 5856
WIRE 3568 5856 3376 5856
WIRE 4032 5888 4032 5392
WIRE 3920 5936 3920 5456
WIRE 3968 5936 3920 5936
WIRE 4544 5968 4544 5824
WIRE 4448 6080 4384 6080
WIRE 4544 6080 4544 6048
WIRE 4544 6080 4512 6080
WIRE 4544 6128 4544 6080
WIRE 4032 6176 4032 5984
WIRE 4224 6176 4032 6176
WIRE 4384 6176 4384 6080
WIRE 4384 6176 4304 6176
WIRE 4480 6176 4384 6176
WIRE 3632 6192 3632 5904
WIRE 3712 6192 3712 5744
WIRE 3824 6192 3824 5632
WIRE 4544 6256 4544 6224
WIRE 3632 6384 3632 6272
WIRE 3632 6384 3424 6384
WIRE 3712 6384 3712 6272
WIRE 3712 6384 3632 6384
WIRE 3824 6384 3824 6272
WIRE 3824 6384 3712 6384
WIRE 4544 6384 4544 6336
WIRE 4544 6384 3824 6384
WIRE 4720 6384 4544 6384
WIRE 3424 6432 3424 6384
WIRE 3712 6736 3648 6736
WIRE 4032 6736 3792 6736
WIRE 4464 6736 4032 6736
WIRE 4912 6736 4464 6736
WIRE 5440 6736 4912 6736
WIRE 5728 6736 5440 6736
WIRE 5872 6736 5728 6736
WIRE 5984 6736 5872 6736
WIRE 6784 6736 5984 6736
WIRE 7552 6736 6784 6736
WIRE 7728 6736 7552 6736
WIRE 6784 6752 6784 6736
WIRE 7552 6752 7552 6736
WIRE 5440 6768 5440 6736
WIRE 5728 6768 5728 6736
WIRE 5872 6768 5872 6736
WIRE 5984 6768 5984 6736
WIRE 4032 6800 4032 6736
WIRE 4464 6800 4464 6736
WIRE 4912 6800 4912 6736
WIRE 8912 6800 8720 6800
WIRE 8976 6800 8912 6800
WIRE 9136 6800 9040 6800
WIRE 8896 6816 8720 6816
WIRE 8976 6816 8896 6816
WIRE 8880 6832 8720 6832
WIRE 8976 6832 8944 6832
WIRE 9136 6896 9136 6800
WIRE 9184 6896 9136 6896
WIRE 9184 6912 9104 6912
WIRE 8912 6928 8912 6800
WIRE 8976 6928 8912 6928
WIRE 9104 6928 9104 6912
WIRE 9104 6928 9040 6928
WIRE 9184 6928 9120 6928
WIRE 8880 6944 8880 6832
WIRE 8976 6944 8880 6944
WIRE 9184 6944 9136 6944
WIRE 9360 6944 9248 6944
WIRE 9520 6944 9424 6944
WIRE 5984 6960 5984 6848
WIRE 6784 6960 6784 6832
WIRE 7552 6960 7552 6832
WIRE 8944 6960 8944 6832
WIRE 8976 6960 8944 6960
WIRE 4032 7008 4032 6880
WIRE 4032 7008 3968 7008
WIRE 4080 7008 4032 7008
WIRE 4208 7008 4080 7008
WIRE 5920 7008 4208 7008
WIRE 6480 7008 6384 7008
WIRE 6624 7008 6560 7008
WIRE 6720 7008 6624 7008
WIRE 7248 7008 7152 7008
WIRE 7392 7008 7328 7008
WIRE 7488 7008 7392 7008
WIRE 8896 7056 8896 6816
WIRE 8976 7056 8896 7056
WIRE 9120 7056 9120 6928
WIRE 9120 7056 9040 7056
WIRE 6384 7072 6384 7008
WIRE 7152 7072 7152 7008
WIRE 8880 7072 8880 6944
WIRE 8976 7072 8880 7072
WIRE 8944 7088 8944 6960
WIRE 8976 7088 8944 7088
WIRE 5872 7104 5872 6848
WIRE 6624 7104 6624 7008
WIRE 6672 7104 6624 7104
WIRE 6784 7104 6784 7056
WIRE 6784 7104 6736 7104
WIRE 7392 7104 7392 7008
WIRE 7440 7104 7392 7104
WIRE 7552 7104 7552 7056
WIRE 7552 7104 7504 7104
WIRE 6320 7120 6272 7120
WIRE 7088 7120 7040 7120
WIRE 4464 7152 4464 6880
WIRE 4464 7152 4400 7152
WIRE 4512 7152 4464 7152
WIRE 4640 7152 4512 7152
WIRE 5808 7152 4640 7152
WIRE 6784 7152 6784 7104
WIRE 7552 7152 7552 7104
WIRE 8944 7152 8944 7088
WIRE 8944 7152 8720 7152
WIRE 3584 7200 3552 7200
WIRE 3616 7200 3584 7200
WIRE 3840 7200 3696 7200
WIRE 4304 7200 3840 7200
WIRE 9136 7200 9136 6944
WIRE 9136 7200 8720 7200
WIRE 5728 7232 5728 6848
WIRE 3584 7280 3552 7280
WIRE 3616 7280 3584 7280
WIRE 3792 7280 3696 7280
WIRE 4784 7280 3792 7280
WIRE 4912 7280 4912 6880
WIRE 4912 7280 4848 7280
WIRE 4960 7280 4912 7280
WIRE 5088 7280 4960 7280
WIRE 5664 7280 5088 7280
WIRE 3584 7360 3552 7360
WIRE 3616 7360 3584 7360
WIRE 4256 7360 3696 7360
WIRE 4736 7360 4256 7360
WIRE 6784 7376 6784 7232
WIRE 6880 7376 6784 7376
WIRE 7040 7376 7040 7120
WIRE 7040 7376 6880 7376
WIRE 7552 7376 7552 7232
WIRE 7648 7376 7552 7376
WIRE 4080 7488 4080 7008
WIRE 4512 7488 4512 7152
WIRE 4960 7488 4960 7280
WIRE 5440 7504 5440 6848
WIRE 6784 7520 6784 7376
WIRE 7552 7520 7552 7376
WIRE 3840 7536 3840 7200
WIRE 4016 7536 3840 7536
WIRE 4304 7536 4304 7200
WIRE 4448 7536 4304 7536
WIRE 4784 7536 4784 7280
WIRE 4896 7536 4784 7536
WIRE 5376 7552 5344 7552
WIRE 3968 7568 3968 7008
WIRE 4400 7568 4400 7152
WIRE 4848 7568 4848 7280
WIRE 3792 7616 3792 7280
WIRE 3904 7616 3792 7616
WIRE 4256 7616 4256 7360
WIRE 4336 7616 4256 7616
WIRE 4736 7616 4736 7360
WIRE 4784 7616 4736 7616
WIRE 6688 7632 6624 7632
WIRE 6784 7632 6784 7600
WIRE 6784 7632 6752 7632
WIRE 7456 7632 7392 7632
WIRE 7552 7632 7552 7600
WIRE 7552 7632 7520 7632
WIRE 6784 7680 6784 7632
WIRE 7552 7680 7552 7632
WIRE 4208 7712 4208 7008
WIRE 4640 7712 4640 7152
WIRE 5088 7712 5088 7280
WIRE 5440 7728 5440 7600
WIRE 5728 7728 5728 7328
WIRE 5728 7728 5440 7728
WIRE 5872 7728 5872 7200
WIRE 5872 7728 5728 7728
WIRE 5984 7728 5984 7056
WIRE 5984 7728 5872 7728
WIRE 6272 7728 6272 7120
WIRE 6272 7728 5984 7728
WIRE 6464 7728 6272 7728
WIRE 6624 7728 6624 7632
WIRE 6624 7728 6544 7728
WIRE 6720 7728 6624 7728
WIRE 7040 7728 7040 7376
WIRE 7232 7728 7040 7728
WIRE 7392 7728 7392 7632
WIRE 7392 7728 7312 7728
WIRE 7488 7728 7392 7728
WIRE 4144 7760 4128 7760
WIRE 4576 7760 4560 7760
WIRE 5024 7760 5008 7760
WIRE 6384 7776 6384 7168
WIRE 7152 7776 7152 7168
WIRE 5984 7808 5984 7728
WIRE 6784 7808 6784 7776
WIRE 7552 7808 7552 7776
WIRE 3968 7840 3968 7664
WIRE 4080 7840 4080 7584
WIRE 4208 7840 4208 7808
WIRE 4400 7840 4400 7664
WIRE 4512 7840 4512 7584
WIRE 4640 7840 4640 7808
WIRE 4848 7840 4848 7664
WIRE 4960 7840 4960 7584
WIRE 5088 7840 5088 7808
WIRE 3968 7936 3968 7920
WIRE 3968 7936 3760 7936
WIRE 4080 7936 4080 7920
WIRE 4080 7936 3968 7936
WIRE 4208 7936 4208 7920
WIRE 4208 7936 4080 7936
WIRE 4400 7936 4400 7920
WIRE 4400 7936 4208 7936
WIRE 4512 7936 4512 7920
WIRE 4512 7936 4400 7936
WIRE 4640 7936 4640 7920
WIRE 4640 7936 4512 7936
WIRE 4848 7936 4848 7920
WIRE 4848 7936 4640 7936
WIRE 4960 7936 4960 7920
WIRE 4960 7936 4848 7936
WIRE 5088 7936 5088 7920
WIRE 5088 7936 4960 7936
WIRE 5984 7936 5984 7888
WIRE 5984 7936 5088 7936
WIRE 6384 7936 6384 7856
WIRE 6384 7936 5984 7936
WIRE 6784 7936 6784 7888
WIRE 6784 7936 6384 7936
WIRE 7152 7936 7152 7856
WIRE 7152 7936 6784 7936
WIRE 7552 7936 7552 7888
WIRE 7552 7936 7152 7936
WIRE 7728 7936 7552 7936
WIRE 3760 7984 3760 7936
WIRE 4128 8000 4128 7760
WIRE 4128 8000 3904 8000
WIRE 4560 8000 4560 7760
WIRE 4560 8000 4128 8000
WIRE 5008 8000 5008 7760
WIRE 5008 8000 4560 8000
WIRE 5024 8208 4976 8208
WIRE 5344 8208 5344 7552
WIRE 5344 8208 5024 8208
FLAG -528 128 0
FLAG 352 0 BIT0
FLAG -528 0 VCC
FLAG 272 0 0
FLAG 352 160 BIT1
FLAG 272 160 0
FLAG 352 304 BIT2
FLAG 272 304 0
FLAG 352 448 BIT3
FLAG 272 448 0
FLAG 352 592 BIT4
FLAG 272 592 0
FLAG 1312 80 BIT0
FLAG 1312 160 0
FLAG 1472 80 BIT1
FLAG 1472 160 0
FLAG 1632 80 BIT2
FLAG 1632 160 0
FLAG 1792 80 BIT3
FLAG 1792 160 0
FLAG 1952 80 BIT4
FLAG 1952 160 0
FLAG -1120 3472 0
FLAG 96 2864 NAN2
FLAG -1104 2624 BIT0
FLAG -1056 2320 VCC
FLAG -1104 3056 BIT1
FLAG 1040 3456 0
FLAG 2256 2848 NAND4
FLAG 896 2608 BIT0
FLAG 1104 2304 VCC
FLAG 896 2720 BIT1
FLAG 880 2880 BIT2
FLAG 880 3056 BIT3
FLAG -1152 4960 0
FLAG 64 4352 NOR2
FLAG -1136 4208 BIT0
FLAG -1088 3904 VCC
FLAG -1136 4304 BIT1
FLAG 960 4944 0
FLAG 2176 4336 NOR4
FLAG 976 4192 BIT0
FLAG 1024 3888 VCC
FLAG 976 4288 BIT1
FLAG 976 4416 BIT2
FLAG 976 4592 BIT3
FLAG 3264 3456 0
FLAG 4768 2848 NOT_AND_OR
FLAG 3120 2608 BIT0
FLAG 3248 2304 VCC
FLAG 3120 2720 BIT1
FLAG 3104 2880 BIT2
FLAG 3104 3056 BIT3
FLAG 8112 4528 XOR3
FLAG 3344 5136 0
FLAG 3360 4384 BIT0
FLAG 3408 3888 VCC
FLAG 3360 4480 BIT1
FLAG 3360 4592 BIT2
FLAG 6256 5360 BIT3
FLAG 3424 6432 0
FLAG 3280 5584 BIT0
FLAG 3280 5696 BIT1
FLAG 3264 5856 BIT2
FLAG 6880 7376 _CARRY_OUT
FLAG 5024 8208 BIT3
FLAG 3584 7200 BIT0
FLAG 3584 7280 BIT1
FLAG 3584 7360 BIT2
FLAG 3760 7984 0
FLAG 3648 6736 VCC
FLAG 3904 8000 BIT4
FLAG 7648 7376 CARRY_OUT
SYMBOL voltage -528 16 R0
WINDOW 123 0 0 Left 0
WINDOW 39 0 0 Left 0
SYMATTR InstName VCC
SYMATTR Value {VCC}
SYMBOL voltage 368 0 R90
WINDOW 123 -77 30 VRight 2
WINDOW 39 0 0 Left 0
WINDOW 0 -51 28 VRight 2
WINDOW 3 46 -379 VRight 2
SYMATTR Value2 AC 5
SYMATTR InstName V_BIT0
SYMATTR Value PULSE(0 {VCC} 0 {rise} {rise} {1/freq/2-rise} {1/freq} {16*reps})
SYMBOL voltage 368 160 R90
WINDOW 123 -77 30 VRight 2
WINDOW 39 0 0 Left 0
WINDOW 0 -51 28 VRight 2
WINDOW 3 46 -379 VRight 2
SYMATTR InstName V_BIT1
SYMATTR Value PULSE(0 {VCC} 0 {rise} {rise} {2*1/freq/2-rise} {2*1/freq} {8*reps})
SYMBOL voltage 368 304 R90
WINDOW 123 -77 30 VRight 2
WINDOW 39 0 0 Left 0
WINDOW 0 -51 28 VRight 2
WINDOW 3 46 -379 VRight 2
SYMATTR InstName V_BIT2
SYMATTR Value PULSE(0 {VCC} 0 {rise} {rise} {4*1/freq/2-rise} {4*1/freq} {4*reps})
SYMBOL voltage 368 448 R90
WINDOW 123 -77 30 VRight 2
WINDOW 39 0 0 Left 0
WINDOW 0 -51 28 VRight 2
WINDOW 3 46 -379 VRight 2
SYMATTR InstName V_BIT3
SYMATTR Value PULSE(0 {VCC} 0 {rise} {rise} {8*1/freq/2-rise} {8*1/freq} {2*reps})
SYMBOL voltage 368 592 R90
WINDOW 123 -77 30 VRight 2
WINDOW 39 0 0 Left 0
WINDOW 0 -51 28 VRight 2
WINDOW 3 46 -379 VRight 2
SYMATTR InstName V_BIT4
SYMATTR Value PULSE(0 {VCC} 0 {rise} {rise} {16*1/freq/2-rise} {16*1/freq} {1*reps})
SYMBOL res 1296 64 R0
SYMATTR InstName R1
SYMATTR Value 10Mega
SYMBOL res 1456 64 R0
SYMATTR InstName R2
SYMATTR Value 10Mega
SYMBOL res 1616 64 R0
SYMATTR InstName R3
SYMATTR Value 10Mega
SYMBOL res 1776 64 R0
SYMATTR InstName R4
SYMATTR Value 10Mega
SYMBOL res 1936 64 R0
SYMATTR InstName R5
SYMATTR Value 10Mega
SYMBOL res -336 3232 R270
WINDOW 0 32 56 VTop 2
WINDOW 3 0 56 VBottom 2
SYMATTR InstName R85
SYMATTR Value {Rb}
SYMBOL npn -64 3168 R0
SYMATTR InstName Q9
SYMATTR Value 2N3904
SYMBOL schottky -96 3136 R270
WINDOW 0 32 32 VTop 2
WINDOW 3 0 32 VBottom 2
SYMATTR InstName D25
SYMATTR Value BAT54
SYMATTR Description Diode
SYMATTR Type diode
SYMBOL pnp -64 2544 M180
SYMATTR InstName Q10
SYMATTR Value 2N3906
SYMBOL schottky -48 2576 R90
WINDOW 0 0 32 VBottom 2
WINDOW 3 32 32 VTop 2
SYMATTR InstName D26
SYMATTR Value BAT54
SYMATTR Description Diode
SYMATTR Type diode
SYMBOL res -208 2480 R90
WINDOW 0 0 56 VBottom 2
WINDOW 3 32 56 VTop 2
SYMATTR InstName R86
SYMATTR Value {Rb}
SYMBOL res -1008 2336 R270
WINDOW 0 32 56 VTop 2
WINDOW 3 0 56 VBottom 2
SYMATTR InstName R158
SYMATTR Value 1m
SYMBOL res -1088 2640 R270
WINDOW 0 32 56 VTop 2
WINDOW 3 0 56 VBottom 2
SYMATTR InstName R160
SYMATTR Value 1m
SYMBOL npn -576 2928 R0
SYMATTR InstName Q11
SYMATTR Value 2N3904
SYMBOL pnp -784 2672 M180
SYMATTR InstName Q12
SYMATTR Value 2N3906
SYMBOL res -528 2336 R0
SYMATTR InstName R168
SYMATTR Value 1m
SYMBOL res -16 2320 R0
SYMATTR InstName R169
SYMATTR Value 1m
SYMBOL res -736 3216 R0
SYMATTR InstName R170
SYMATTR Value 1m
SYMBOL res -16 3280 R0
SYMATTR InstName R171
SYMATTR Value 1m
SYMBOL res -16 2624 R0
SYMATTR InstName R172
SYMATTR Value 1m
SYMBOL res -16 2992 R0
SYMATTR InstName R173
SYMATTR Value 1m
SYMBOL pnp -896 3104 M180
SYMATTR InstName Q17
SYMATTR Value 2N3906
SYMBOL res -1088 3072 R270
WINDOW 0 32 56 VTop 2
WINDOW 3 0 56 VBottom 2
SYMATTR InstName R174
SYMATTR Value 1m
SYMBOL res -848 3216 R0
SYMATTR InstName R175
SYMATTR Value 1m
SYMBOL res 1824 3216 R270
WINDOW 0 32 56 VTop 2
WINDOW 3 0 56 VBottom 2
SYMATTR InstName R6
SYMATTR Value {Rb}
SYMBOL npn 2096 3152 R0
SYMATTR InstName Q1
SYMATTR Value 2N3904
SYMBOL schottky 2064 3120 R270
WINDOW 0 32 32 VTop 2
WINDOW 3 0 32 VBottom 2
SYMATTR InstName D1
SYMATTR Value BAT54
SYMATTR Description Diode
SYMATTR Type diode
SYMBOL pnp 2096 2528 M180
SYMATTR InstName Q2
SYMATTR Value 2N3906
SYMBOL schottky 2112 2560 R90
WINDOW 0 0 32 VBottom 2
WINDOW 3 32 32 VTop 2
SYMATTR InstName D2
SYMATTR Value BAT54
SYMATTR Description Diode
SYMATTR Type diode
SYMBOL res 1952 2464 R90
WINDOW 0 0 56 VBottom 2
WINDOW 3 32 56 VTop 2
SYMATTR InstName R7
SYMATTR Value {Rb}
SYMBOL res 1152 2320 R270
WINDOW 0 32 56 VTop 2
WINDOW 3 0 56 VBottom 2
SYMATTR InstName R8
SYMATTR Value 1m
SYMBOL res 912 2624 R270
WINDOW 0 32 56 VTop 2
WINDOW 3 0 56 VBottom 2
SYMATTR InstName R9
SYMATTR Value 1m
SYMBOL npn 1584 2912 R0
SYMATTR InstName Q3
SYMATTR Value 2N3904
SYMBOL pnp 1376 2656 M180
SYMATTR InstName Q4
SYMATTR Value 2N3906
SYMBOL res 1632 2320 R0
SYMATTR InstName R10
SYMATTR Value 1m
SYMBOL res 2144 2304 R0
SYMATTR InstName R11
SYMATTR Value 1m
SYMBOL res 1424 3200 R0
SYMATTR InstName R12
SYMATTR Value 1m
SYMBOL res 2144 3264 R0
SYMATTR InstName R13
SYMATTR Value 1m
SYMBOL res 2144 2608 R0
SYMATTR InstName R14
SYMATTR Value 1m
SYMBOL res 2144 2976 R0
SYMATTR InstName R15
SYMATTR Value 1m
SYMBOL pnp 1264 2768 M180
SYMATTR InstName Q5
SYMATTR Value 2N3906
SYMBOL res 912 2736 R270
WINDOW 0 32 56 VTop 2
WINDOW 3 0 56 VBottom 2
SYMATTR InstName R16
SYMATTR Value 1m
SYMBOL res 1312 3200 R0
SYMATTR InstName R17
SYMATTR Value 1m
SYMBOL pnp 1184 2928 M180
SYMATTR InstName Q6
SYMATTR Value 2N3906
SYMBOL res 896 2896 R270
WINDOW 0 32 56 VTop 2
WINDOW 3 0 56 VBottom 2
SYMATTR InstName R18
SYMATTR Value 1m
SYMBOL pnp 1088 3104 M180
SYMATTR InstName Q7
SYMATTR Value 2N3906
SYMBOL res 896 3072 R270
WINDOW 0 32 56 VTop 2
WINDOW 3 0 56 VBottom 2
SYMATTR InstName R19
SYMATTR Value 1m
SYMBOL res 1232 3200 R0
SYMATTR InstName R20
SYMATTR Value 1m
SYMBOL res 1136 3200 R0
SYMATTR InstName R21
SYMATTR Value 1m
SYMBOL res -368 4720 R270
WINDOW 0 32 56 VTop 2
WINDOW 3 0 56 VBottom 2
SYMATTR InstName R22
SYMATTR Value {Rb}
SYMBOL npn -96 4656 R0
SYMATTR InstName Q8
SYMATTR Value 2N3904
SYMBOL schottky -128 4624 R270
WINDOW 0 32 32 VTop 2
WINDOW 3 0 32 VBottom 2
SYMATTR InstName D3
SYMATTR Value BAT54
SYMATTR Description Diode
SYMATTR Type diode
SYMBOL pnp -96 4128 M180
SYMATTR InstName Q14
SYMATTR Value 2N3906
SYMBOL schottky -80 4160 R90
WINDOW 0 0 32 VBottom 2
WINDOW 3 32 32 VTop 2
SYMATTR InstName D4
SYMATTR Value BAT54
SYMATTR Description Diode
SYMATTR Type diode
SYMBOL res -240 4064 R90
WINDOW 0 0 56 VBottom 2
WINDOW 3 32 56 VTop 2
SYMATTR InstName R24
SYMATTR Value {Rb}
SYMBOL res -1040 3920 R270
WINDOW 0 32 56 VTop 2
WINDOW 3 0 56 VBottom 2
SYMATTR InstName R25
SYMATTR Value 1m
SYMBOL res -1120 4224 R270
WINDOW 0 32 56 VTop 2
WINDOW 3 0 56 VBottom 2
SYMATTR InstName R26
SYMATTR Value 1m
SYMBOL npn -656 4160 R0
SYMATTR InstName Q15
SYMATTR Value 2N3904
SYMBOL pnp -464 4256 M180
SYMATTR InstName Q16
SYMATTR Value 2N3906
SYMBOL res -608 3920 R0
SYMATTR InstName R28
SYMATTR Value 1m
SYMBOL res -48 3904 R0
SYMATTR InstName R29
SYMATTR Value 1m
SYMBOL res -48 4768 R0
SYMATTR InstName R32
SYMATTR Value 1m
SYMBOL res -48 4208 R0
SYMATTR InstName R33
SYMATTR Value 1m
SYMBOL res -48 4400 R0
SYMATTR InstName R34
SYMATTR Value 1m
SYMBOL res -416 4752 R0
SYMATTR InstName R30
SYMATTR Value 1m
SYMBOL npn -768 4256 R0
SYMATTR InstName Q18
SYMATTR Value 2N3904
SYMBOL res -720 3920 R0
SYMATTR InstName R35