Version 4
SHEET 1 13860 8516
WIRE -528 32 -528 0
WIRE -528 128 -528 112
WIRE 1168 2304 1104 2304
WIRE 1648 2304 1248 2304
WIRE 2160 2304 1648 2304
WIRE 2336 2304 2160 2304
WIRE 3312 2304 3248 2304
WIRE 3424 2304 3392 2304
WIRE 3616 2304 3424 2304
WIRE 3872 2304 3616 2304
WIRE 4048 2304 3872 2304
WIRE 4672 2304 4048 2304
WIRE 4848 2304 4672 2304
WIRE -992 2320 -1056 2320
WIRE -512 2320 -912 2320
WIRE 0 2320 -512 2320
WIRE 176 2320 0 2320
WIRE 2160 2320 2160 2304
WIRE 4672 2320 4672 2304
WIRE 0 2336 0 2320
WIRE 1648 2336 1648 2304
WIRE 3872 2336 3872 2304
WIRE 4048 2336 4048 2304
WIRE -512 2352 -512 2320
WIRE 3424 2368 3424 2304
WIRE 3616 2368 3616 2304
WIRE 2160 2432 2160 2400
WIRE 3872 2432 3872 2416
WIRE 4672 2432 4672 2400
WIRE 0 2448 0 2416
WIRE 1248 2480 1152 2480
WIRE 1328 2480 1248 2480
WIRE 1440 2480 1328 2480
WIRE 1536 2480 1440 2480
WIRE 1856 2480 1536 2480
WIRE 2000 2480 1936 2480
WIRE 2096 2480 2000 2480
WIRE 3616 2480 3616 2448
WIRE 3616 2480 3552 2480
WIRE 3664 2480 3616 2480
WIRE 3808 2480 3664 2480
WIRE 4368 2480 4272 2480
WIRE 4512 2480 4448 2480
WIRE 4608 2480 4512 2480
WIRE -720 2496 -832 2496
WIRE -624 2496 -720 2496
WIRE -304 2496 -624 2496
WIRE -160 2496 -224 2496
WIRE -64 2496 -160 2496
WIRE 4272 2544 4272 2480
WIRE 1440 2560 1440 2480
WIRE 3664 2560 3664 2480
WIRE -720 2576 -720 2496
WIRE 2000 2576 2000 2480
WIRE 2048 2576 2000 2576
WIRE 2160 2576 2160 2528
WIRE 2160 2576 2112 2576
WIRE 4512 2576 4512 2480
WIRE 4560 2576 4512 2576
WIRE 4672 2576 4672 2528
WIRE 4672 2576 4624 2576
WIRE -160 2592 -160 2496
WIRE -112 2592 -160 2592
WIRE 0 2592 0 2544
WIRE 0 2592 -48 2592
WIRE 4208 2592 4160 2592
WIRE 896 2608 864 2608
WIRE 928 2608 896 2608
WIRE 1376 2608 1008 2608
WIRE 3120 2608 3088 2608
WIRE 3152 2608 3120 2608
WIRE 3600 2608 3232 2608
WIRE -1104 2624 -1136 2624
WIRE -1072 2624 -1104 2624
WIRE -784 2624 -992 2624
WIRE 2160 2624 2160 2576
WIRE 4672 2624 4672 2576
WIRE 0 2640 0 2592
WIRE 1328 2672 1328 2480
WIRE 3552 2672 3552 2480
WIRE 896 2720 864 2720
WIRE 928 2720 896 2720
WIRE 1264 2720 1008 2720
WIRE 3120 2720 3088 2720
WIRE 3152 2720 3120 2720
WIRE 3488 2720 3232 2720
WIRE 4048 2752 4048 2416
WIRE 3424 2800 3424 2448
WIRE 3424 2800 3376 2800
WIRE 3472 2800 3424 2800
WIRE 3984 2800 3472 2800
WIRE 1248 2832 1248 2480
WIRE 3472 2832 3472 2800
WIRE 2160 2848 2160 2704
WIRE 2256 2848 2160 2848
WIRE 4672 2848 4672 2704
WIRE 4768 2848 4672 2848
WIRE 0 2864 0 2720
WIRE 96 2864 0 2864
WIRE 880 2880 848 2880
WIRE 912 2880 880 2880
WIRE 1184 2880 992 2880
WIRE 3104 2880 3072 2880
WIRE 3136 2880 3104 2880
WIRE 3408 2880 3216 2880
WIRE 7136 2880 7024 2880
WIRE 7328 2880 7216 2880
WIRE 7392 2880 7328 2880
WIRE 1648 2912 1648 2416
WIRE 6704 2912 6624 2912
WIRE 6864 2912 6784 2912
WIRE 6960 2912 6864 2912
WIRE -512 2928 -512 2432
WIRE 1536 2960 1536 2480
WIRE 1584 2960 1536 2960
WIRE -624 2976 -624 2496
WIRE -576 2976 -624 2976
WIRE 2160 2992 2160 2848
WIRE 4672 2992 4672 2848
WIRE -832 3008 -832 2496
WIRE 0 3008 0 2864
WIRE 1152 3008 1152 2480
WIRE 3376 3008 3376 2800
WIRE 5776 3040 5520 3040
WIRE 6176 3040 5920 3040
WIRE 6496 3040 6320 3040
WIRE 6576 3040 6496 3040
WIRE 6976 3040 6720 3040
WIRE 7376 3040 7120 3040
WIRE -1104 3056 -1136 3056
WIRE -1072 3056 -1104 3056
WIRE -896 3056 -992 3056
WIRE 880 3056 848 3056
WIRE 912 3056 880 3056
WIRE 1088 3056 992 3056
WIRE 3104 3056 3072 3056
WIRE 3136 3056 3104 3056
WIRE 3312 3056 3216 3056
WIRE 5648 3072 5504 3072
WIRE 6048 3072 5904 3072
WIRE 6448 3072 6304 3072
WIRE 6848 3072 6704 3072
WIRE 7248 3072 7104 3072
WIRE 2064 3104 2000 3104
WIRE 2160 3104 2160 3072
WIRE 2160 3104 2128 3104
WIRE 4576 3104 4512 3104
WIRE 4672 3104 4672 3072
WIRE 4672 3104 4640 3104
WIRE 5648 3104 5648 3072
WIRE 6048 3104 6048 3072
WIRE 6448 3104 6448 3072
WIRE 6848 3104 6848 3072
WIRE 7248 3104 7248 3072
WIRE -96 3120 -160 3120
WIRE 0 3120 0 3088
WIRE 0 3120 -32 3120
WIRE 2160 3152 2160 3104
WIRE 4672 3152 4672 3104
WIRE 5520 3152 5520 3040
WIRE 5568 3152 5520 3152
WIRE 5824 3152 5728 3152
WIRE 5920 3152 5920 3040
WIRE 5968 3152 5920 3152
WIRE 6224 3152 6128 3152
WIRE 6320 3152 6320 3040
WIRE 6368 3152 6320 3152
WIRE 6624 3152 6624 2912
WIRE 6624 3152 6528 3152
WIRE 6720 3152 6720 3040
WIRE 6768 3152 6720 3152
WIRE 7024 3152 7024 2880
WIRE 7024 3152 6928 3152
WIRE 7120 3152 7120 3040
WIRE 7168 3152 7120 3152
WIRE 7424 3152 7328 3152
WIRE 0 3168 0 3120
WIRE 1648 3200 1648 3008
WIRE 1840 3200 1648 3200
WIRE 2000 3200 2000 3104
WIRE 2000 3200 1920 3200
WIRE 2096 3200 2000 3200
WIRE 3872 3200 3872 2528
WIRE 4048 3200 4048 2848
WIRE 4048 3200 3872 3200
WIRE 4160 3200 4160 2592
WIRE 4160 3200 4048 3200
WIRE 4352 3200 4160 3200
WIRE 4512 3200 4512 3104
WIRE 4512 3200 4432 3200
WIRE 4608 3200 4512 3200
WIRE 5472 3200 5376 3200
WIRE 5568 3200 5472 3200
WIRE 5776 3200 5776 3040
WIRE 5776 3200 5744 3200
WIRE 5824 3200 5824 3152
WIRE 5872 3200 5824 3200
WIRE 5968 3200 5872 3200
WIRE 6176 3200 6176 3040
WIRE 6176 3200 6144 3200
WIRE 6224 3200 6224 3152
WIRE 6368 3200 6224 3200
WIRE 6576 3200 6576 3040
WIRE 6576 3200 6544 3200
WIRE 6624 3200 6624 3152
WIRE 6768 3200 6624 3200
WIRE 6976 3200 6976 3040
WIRE 6976 3200 6944 3200
WIRE 7024 3200 7024 3152
WIRE 7072 3200 7024 3200
WIRE 7168 3200 7072 3200
WIRE 7376 3200 7376 3040
WIRE 7376 3200 7344 3200
WIRE 7424 3200 7424 3152
WIRE 7488 3200 7424 3200
WIRE 7568 3200 7488 3200
WIRE -512 3216 -512 3024
WIRE -320 3216 -512 3216
WIRE -160 3216 -160 3120
WIRE -160 3216 -240 3216
WIRE -64 3216 -160 3216
WIRE 1152 3216 1152 3104
WIRE 1248 3216 1248 2928
WIRE 1328 3216 1328 2768
WIRE 1440 3216 1440 2656
WIRE 3376 3216 3376 3104
WIRE 3472 3216 3472 2928
WIRE 3552 3216 3552 2768
WIRE 3664 3216 3664 2656
WIRE -832 3232 -832 3104
WIRE -720 3232 -720 2672
WIRE 5376 3232 5376 3200
WIRE 4272 3248 4272 2640
WIRE 2160 3280 2160 3248
WIRE 3872 3280 3872 3200
WIRE 4672 3280 4672 3248
WIRE 5504 3280 5504 3072
WIRE 5568 3280 5568 3248
WIRE 5568 3280 5504 3280
WIRE 5648 3280 5648 3248
WIRE 5648 3280 5568 3280
WIRE 5904 3280 5904 3072
WIRE 5968 3280 5968 3248
WIRE 5968 3280 5904 3280
WIRE 6048 3280 6048 3248
WIRE 6048 3280 5968 3280
WIRE 6304 3280 6304 3072
WIRE 6368 3280 6368 3248
WIRE 6368 3280 6304 3280
WIRE 6448 3280 6448 3248
WIRE 6448 3280 6368 3280
WIRE 6704 3280 6704 3072
WIRE 6768 3280 6768 3248
WIRE 6768 3280 6704 3280
WIRE 6848 3280 6848 3248
WIRE 6848 3280 6768 3280
WIRE 7104 3280 7104 3072
WIRE 7168 3280 7168 3248
WIRE 7168 3280 7104 3280
WIRE 7248 3280 7248 3248
WIRE 7248 3280 7168 3280
WIRE 0 3296 0 3264
WIRE 5568 3296 5568 3280
WIRE 5968 3296 5968 3280
WIRE 6368 3296 6368 3280
WIRE 6768 3296 6768 3280
WIRE 7168 3296 7168 3280
WIRE 1152 3408 1152 3296
WIRE 1152 3408 1040 3408
WIRE 1248 3408 1248 3296
WIRE 1248 3408 1152 3408
WIRE 1328 3408 1328 3296
WIRE 1328 3408 1248 3408
WIRE 1440 3408 1440 3296
WIRE 1440 3408 1328 3408
WIRE 2160 3408 2160 3360
WIRE 2160 3408 1440 3408
WIRE 2336 3408 2160 3408
WIRE 3376 3408 3376 3296
WIRE 3376 3408 3264 3408
WIRE 3472 3408 3472 3296
WIRE 3472 3408 3376 3408
WIRE 3552 3408 3552 3296
WIRE 3552 3408 3472 3408
WIRE 3664 3408 3664 3296
WIRE 3664 3408 3552 3408
WIRE 3872 3408 3872 3360
WIRE 3872 3408 3664 3408
WIRE 4272 3408 4272 3328
WIRE 4272 3408 3872 3408
WIRE 4672 3408 4672 3360
WIRE 4672 3408 4272 3408
WIRE 4848 3408 4672 3408
WIRE -832 3424 -832 3312
WIRE -832 3424 -1120 3424
WIRE -720 3424 -720 3312
WIRE -720 3424 -832 3424
WIRE 0 3424 0 3376
WIRE 0 3424 -720 3424
WIRE 176 3424 0 3424
WIRE 1040 3456 1040 3408
WIRE 3264 3456 3264 3408
WIRE -1120 3472 -1120 3424
WIRE 1088 3888 1024 3888
WIRE 1232 3888 1168 3888
WIRE 1328 3888 1232 3888
WIRE 1408 3888 1328 3888
WIRE 1520 3888 1408 3888
WIRE 2080 3888 1520 3888
WIRE 2256 3888 2080 3888
WIRE 3472 3888 3408 3888
WIRE 3760 3888 3552 3888
WIRE 3872 3888 3760 3888
WIRE 3968 3888 3872 3888
WIRE 4080 3888 3968 3888
WIRE 4640 3888 4080 3888
WIRE 4784 3888 4640 3888
WIRE 5264 3888 4784 3888
WIRE 5696 3888 5264 3888
WIRE 6144 3888 5696 3888
WIRE 6672 3888 6144 3888
WIRE 6816 3888 6672 3888
WIRE 6960 3888 6816 3888
WIRE 7104 3888 6960 3888
WIRE 7216 3888 7104 3888
WIRE 8016 3888 7216 3888
WIRE 8192 3888 8016 3888
WIRE -1024 3904 -1088 3904
WIRE -704 3904 -944 3904
WIRE -592 3904 -704 3904
WIRE -32 3904 -592 3904
WIRE 144 3904 -32 3904
WIRE 2080 3904 2080 3888
WIRE 4640 3904 4640 3888
WIRE 8016 3904 8016 3888
WIRE -32 3920 -32 3904
WIRE 1232 3920 1232 3888
WIRE 1328 3920 1328 3888
WIRE 1408 3920 1408 3888
WIRE 1520 3920 1520 3888
WIRE 3760 3920 3760 3888
WIRE 3872 3920 3872 3888
WIRE 3968 3920 3968 3888
WIRE 4080 3920 4080 3888
WIRE 6672 3920 6672 3888
WIRE 6816 3920 6816 3888
WIRE 6960 3920 6960 3888
WIRE 7104 3920 7104 3888
WIRE 7216 3920 7216 3888
WIRE -704 3936 -704 3904
WIRE -592 3936 -592 3904
WIRE 5264 3952 5264 3888
WIRE 5696 3952 5696 3888
WIRE 6144 3952 6144 3888
WIRE 2080 4016 2080 3984
WIRE -32 4032 -32 4000
WIRE 1776 4064 1712 4064
WIRE 1920 4064 1856 4064
WIRE 2016 4064 1920 4064
WIRE -336 4080 -400 4080
WIRE -192 4080 -256 4080
WIRE -96 4080 -192 4080
WIRE 7216 4112 7216 4000
WIRE 8016 4112 8016 3984
WIRE 5056 4128 3520 4128
WIRE 1520 4144 1520 4000
WIRE 1712 4144 1712 4064
WIRE -592 4160 -592 4016
WIRE -400 4160 -400 4080
WIRE 1920 4160 1920 4064
WIRE 1968 4160 1920 4160
WIRE 2080 4160 2080 4112
WIRE 2080 4160 2032 4160
WIRE 5024 4160 3552 4160
WIRE 5264 4160 5264 4032
WIRE 5264 4160 5200 4160
WIRE 5312 4160 5264 4160
WIRE 5440 4160 5312 4160
WIRE 7152 4160 5440 4160
WIRE 7712 4160 7616 4160
WIRE 7856 4160 7792 4160
WIRE 7952 4160 7856 4160
WIRE -192 4176 -192 4080
WIRE -144 4176 -192 4176
WIRE -32 4176 -32 4128
WIRE -32 4176 -80 4176
WIRE 976 4192 944 4192
WIRE 1008 4192 976 4192
WIRE 1456 4192 1088 4192
WIRE 4992 4192 3584 4192
WIRE -1136 4208 -1168 4208
WIRE -1104 4208 -1136 4208
WIRE -656 4208 -1024 4208
WIRE 2080 4208 2080 4160
WIRE 4640 4208 4640 3984
WIRE -32 4224 -32 4176
WIRE 7616 4224 7616 4160
WIRE 1408 4240 1408 4000
WIRE -704 4256 -704 4016
WIRE 4336 4256 4272 4256
WIRE 4480 4256 4416 4256
WIRE 4576 4256 4480 4256
WIRE 7104 4256 7104 4000
WIRE 7856 4256 7856 4160
WIRE 7904 4256 7856 4256
WIRE 8016 4256 8016 4208
WIRE 8016 4256 7968 4256
WIRE 7552 4272 7504 4272
WIRE 976 4288 944 4288
WIRE 1008 4288 976 4288
WIRE 1344 4288 1088 4288
WIRE -1136 4304 -1168 4304
WIRE -1104 4304 -1136 4304
WIRE -768 4304 -1024 4304
WIRE 5696 4304 5696 4032
WIRE 5696 4304 5632 4304
WIRE 5744 4304 5696 4304
WIRE 5872 4304 5744 4304
WIRE 7040 4304 5872 4304
WIRE 8016 4304 8016 4256
WIRE 2080 4336 2080 4288
WIRE 2176 4336 2080 4336
WIRE 4080 4336 4080 4000
WIRE 4272 4336 4272 4256
WIRE -32 4352 -32 4304
WIRE 64 4352 -32 4352
WIRE 4480 4352 4480 4256
WIRE 4528 4352 4480 4352
WIRE 4640 4352 4640 4304
WIRE 4640 4352 4592 4352
WIRE 5056 4352 5056 4128
WIRE 5536 4352 5056 4352
WIRE 1328 4368 1328 4000
WIRE 5024 4368 5024 4160
WIRE 6016 4368 5024 4368
WIRE 3280 4384 3248 4384
WIRE 3312 4384 3280 4384
WIRE 3440 4384 3392 4384
WIRE 3520 4384 3520 4128
WIRE 3520 4384 3440 4384
WIRE 4016 4384 3520 4384
WIRE 4992 4384 4992 4192
WIRE 5520 4384 4992 4384
WIRE 5968 4384 5520 4384
WIRE 6960 4384 6960 4000
WIRE 2080 4400 2080 4336
WIRE 4640 4400 4640 4352
WIRE -32 4416 -32 4352
WIRE 976 4416 944 4416
WIRE 1008 4416 976 4416
WIRE 1264 4416 1088 4416
WIRE 3968 4432 3968 4000
WIRE 6144 4432 6144 4032
WIRE 6144 4432 6080 4432
WIRE 6192 4432 6144 4432
WIRE 6320 4432 6192 4432
WIRE 6896 4432 6320 4432
WIRE 3280 4480 3248 4480
WIRE 3312 4480 3280 4480
WIRE 3472 4480 3392 4480
WIRE 3552 4480 3552 4160
WIRE 3552 4480 3472 4480
WIRE 3904 4480 3552 4480
WIRE 6816 4480 6816 4000
WIRE 4640 4528 4640 4480
WIRE 6752 4528 4640 4528
WIRE 8016 4528 8016 4384
WIRE 8112 4528 8016 4528
WIRE 1232 4544 1232 4000
WIRE 3872 4544 3872 4000
WIRE 976 4592 944 4592
WIRE 1008 4592 976 4592
WIRE 1168 4592 1088 4592
WIRE 1984 4592 1920 4592
WIRE 2080 4592 2080 4480
WIRE 2080 4592 2048 4592
WIRE 3280 4592 3248 4592
WIRE 3312 4592 3280 4592
WIRE 3504 4592 3392 4592
WIRE 3584 4592 3584 4192
WIRE 3584 4592 3504 4592
WIRE 3808 4592 3584 4592
WIRE 4640 4592 4640 4528
WIRE -128 4608 -192 4608
WIRE -32 4608 -32 4496
WIRE -32 4608 -64 4608
WIRE 2080 4640 2080 4592
WIRE 5312 4640 5312 4160
WIRE 5744 4640 5744 4304
WIRE 6192 4640 6192 4432
WIRE -32 4656 -32 4608
WIRE 6672 4656 6672 4000
WIRE 3760 4672 3760 4000
WIRE 8016 4672 8016 4528
WIRE 1232 4688 1232 4640
WIRE 1328 4688 1328 4464
WIRE 1328 4688 1232 4688
WIRE 1408 4688 1408 4336
WIRE 1408 4688 1328 4688
WIRE 1520 4688 1520 4240
WIRE 1520 4688 1408 4688
WIRE 1648 4688 1648 4192
WIRE 1648 4688 1520 4688
WIRE 1760 4688 1648 4688
WIRE 1920 4688 1920 4592
WIRE 1920 4688 1840 4688
WIRE 2016 4688 1920 4688
WIRE 5056 4688 5056 4352
WIRE 5248 4688 5056 4688
WIRE 5536 4688 5536 4352
WIRE 5680 4688 5536 4688
WIRE 6016 4688 6016 4368
WIRE 6128 4688 6016 4688
WIRE -704 4704 -704 4352
WIRE -592 4704 -592 4256
WIRE -592 4704 -704 4704
WIRE -464 4704 -464 4208
WIRE -464 4704 -592 4704
WIRE -352 4704 -464 4704
WIRE -192 4704 -192 4608
WIRE -192 4704 -272 4704
WIRE -96 4704 -192 4704
WIRE 6608 4704 6576 4704
WIRE 3696 4720 3312 4720
WIRE 5200 4720 5200 4160
WIRE 5632 4720 5632 4304
WIRE 6080 4720 6080 4432
WIRE 1712 4752 1712 4240
WIRE -400 4768 -400 4256
WIRE 2080 4768 2080 4736
WIRE 5024 4768 5024 4368
WIRE 5136 4768 5024 4768
WIRE 5520 4768 5520 4384
WIRE 5568 4768 5520 4768
WIRE 5968 4768 5968 4384
WIRE 6016 4768 5968 4768
WIRE -32 4784 -32 4752
WIRE 4544 4784 4480 4784
WIRE 4640 4784 4640 4672
WIRE 4640 4784 4608 4784
WIRE 7920 4784 7856 4784
WIRE 8016 4784 8016 4752
WIRE 8016 4784 7984 4784
WIRE 4640 4832 4640 4784
WIRE 8016 4832 8016 4784
WIRE 5440 4864 5440 4160
WIRE 5872 4864 5872 4304
WIRE 6320 4864 6320 4432
WIRE 3760 4880 3760 4768
WIRE 3872 4880 3872 4640
WIRE 3872 4880 3760 4880
WIRE 3968 4880 3968 4528
WIRE 3968 4880 3872 4880
WIRE 4080 4880 4080 4432
WIRE 4080 4880 3968 4880
WIRE 4208 4880 4208 4384
WIRE 4208 4880 4080 4880
WIRE 4320 4880 4208 4880
WIRE 4480 4880 4480 4784
WIRE 4480 4880 4400 4880
WIRE 4576 4880 4480 4880
WIRE 6672 4880 6672 4752
WIRE 6816 4880 6816 4576
WIRE 6816 4880 6672 4880
WIRE 6960 4880 6960 4480
WIRE 6960 4880 6816 4880
WIRE 7104 4880 7104 4352
WIRE 7104 4880 6960 4880
WIRE 7216 4880 7216 4208
WIRE 7216 4880 7104 4880
WIRE 7504 4880 7504 4272
WIRE 7504 4880 7216 4880
WIRE 7696 4880 7504 4880
WIRE 7856 4880 7856 4784
WIRE 7856 4880 7776 4880
WIRE 7952 4880 7856 4880
WIRE 1712 4896 1712 4832
WIRE 1712 4896 960 4896
WIRE 2080 4896 2080 4848
WIRE 2080 4896 1712 4896
WIRE 2256 4896 2080 4896
WIRE -400 4912 -400 4848
WIRE -400 4912 -1152 4912
WIRE -32 4912 -32 4864
WIRE -32 4912 -400 4912
WIRE 144 4912 -32 4912
WIRE 5376 4912 5360 4912
WIRE 5808 4912 5792 4912
WIRE 6256 4912 6240 4912
WIRE 7616 4928 7616 4320
WIRE 960 4944 960 4896
WIRE 3760 4944 3760 4880
WIRE 4272 4944 4272 4432
WIRE -1152 4960 -1152 4912
WIRE 4640 4960 4640 4928
WIRE 7216 4960 7216 4880
WIRE 8016 4960 8016 4928
WIRE 5200 4992 5200 4816
WIRE 5312 4992 5312 4736
WIRE 5440 4992 5440 4960
WIRE 5632 4992 5632 4816
WIRE 5744 4992 5744 4736
WIRE 5872 4992 5872 4960
WIRE 6080 4992 6080 4816
WIRE 6192 4992 6192 4736
WIRE 6320 4992 6320 4960
WIRE 3760 5088 3760 5024
WIRE 3760 5088 3344 5088
WIRE 4272 5088 4272 5024
WIRE 4272 5088 3760 5088
WIRE 4640 5088 4640 5040
WIRE 4640 5088 4272 5088
WIRE 5200 5088 5200 5072
WIRE 5200 5088 4640 5088
WIRE 5312 5088 5312 5072
WIRE 5312 5088 5200 5088
WIRE 5440 5088 5440 5072
WIRE 5440 5088 5312 5088
WIRE 5632 5088 5632 5072
WIRE 5632 5088 5440 5088
WIRE 5744 5088 5744 5072
WIRE 5744 5088 5632 5088
WIRE 5872 5088 5872 5072
WIRE 5872 5088 5744 5088
WIRE 6080 5088 6080 5072
WIRE 6080 5088 5872 5088
WIRE 6192 5088 6192 5072
WIRE 6192 5088 6080 5088
WIRE 6320 5088 6320 5072
WIRE 6320 5088 6192 5088
WIRE 7216 5088 7216 5040
WIRE 7216 5088 6320 5088
WIRE 7616 5088 7616 5008
WIRE 7616 5088 7216 5088
WIRE 8016 5088 8016 5040
WIRE 8016 5088 7616 5088
WIRE 8192 5088 8016 5088
WIRE 3344 5136 3344 5088
WIRE 5360 5152 5360 4912
WIRE 5792 5152 5792 4912
WIRE 5792 5152 5360 5152
WIRE 6240 5152 6240 4912
WIRE 6240 5152 5792 5152
WIRE 4160 5280 3760 5280
WIRE 4544 5280 4160 5280
WIRE 4784 5280 4784 3888
WIRE 4784 5280 4544 5280
WIRE 4544 5296 4544 5280
WIRE 4160 5312 4160 5280
WIRE 6256 5360 6208 5360
WIRE 6576 5360 6576 4704
WIRE 6576 5360 6256 5360
WIRE 4544 5408 4544 5376
WIRE 3760 5456 3664 5456
WIRE 3840 5456 3760 5456
WIRE 3952 5456 3840 5456
WIRE 4048 5456 3952 5456
WIRE 4240 5456 4048 5456
WIRE 4384 5456 4320 5456
WIRE 4480 5456 4384 5456
WIRE 3952 5536 3952 5456
WIRE 4384 5552 4384 5456
WIRE 4432 5552 4384 5552
WIRE 4544 5552 4544 5504
WIRE 4544 5552 4496 5552
WIRE 3440 5584 3440 4384
WIRE 3888 5584 3440 5584
WIRE 4544 5600 4544 5552
WIRE 3840 5648 3840 5456
WIRE 3472 5696 3472 4480
WIRE 3776 5696 3472 5696
WIRE 6512 5712 6464 5712
WIRE 6512 5728 6240 5728
WIRE 6512 5744 6256 5744
WIRE 6512 5760 6272 5760
WIRE 6656 5760 6576 5760
WIRE 6512 5776 6496 5776
WIRE 6496 5792 6496 5776
WIRE 6528 5792 6528 5776
WIRE 6528 5792 6496 5792
WIRE 3760 5808 3760 5456
WIRE 4544 5824 4544 5680
WIRE 5360 5824 5360 5152
WIRE 5360 5824 4544 5824
WIRE 6176 5824 6128 5824
WIRE 6288 5824 6176 5824
WIRE 6496 5824 6288 5824
WIRE 6512 5824 6496 5824
WIRE 6256 5840 6256 5744
WIRE 6512 5840 6256 5840
WIRE 6640 5840 6576 5840
WIRE 3504 5856 3504 4592
WIRE 3696 5856 3504 5856
WIRE 6272 5856 6272 5760
WIRE 6512 5856 6272 5856
WIRE 6512 5872 6400 5872
WIRE 4160 5888 4160 5392
WIRE 6496 5888 6496 5824
WIRE 6512 5888 6496 5888
WIRE 6528 5904 6528 5888
WIRE 4048 5936 4048 5456
WIRE 4096 5936 4048 5936
WIRE 6496 5936 6496 5888
WIRE 6512 5936 6496 5936
WIRE 3664 5952 3664 5456
WIRE 6240 5952 6240 5728
WIRE 6512 5952 6240 5952
WIRE 6624 5952 6576 5952
WIRE 4544 5968 4544 5824
WIRE 6272 5968 6272 5856
WIRE 6512 5968 6272 5968
WIRE 6400 5984 6400 5872
WIRE 6512 5984 6400 5984
WIRE 3600 6000 3296 6000
WIRE 6496 6000 6496 5936
WIRE 6512 6000 6496 6000
WIRE 6528 6016 6528 6000
WIRE 6496 6048 6496 6000
WIRE 6512 6048 6496 6048
WIRE 7488 6048 7456 6048
WIRE 7520 6048 7488 6048
WIRE 6240 6064 6240 5952
WIRE 6512 6064 6240 6064
WIRE 6608 6064 6576 6064
WIRE 7520 6064 7520 6048
WIRE 7536 6064 7520 6064
WIRE 4448 6080 4384 6080
WIRE 4544 6080 4544 6048
WIRE 4544 6080 4512 6080
WIRE 6256 6080 6256 5840
WIRE 6512 6080 6256 6080
WIRE 7312 6080 7280 6080
WIRE 7472 6080 7312 6080
WIRE 7536 6080 7472 6080
WIRE 7696 6080 7600 6080
WIRE 6400 6096 6400 5984
WIRE 6512 6096 6400 6096
WIRE 7536 6096 7456 6096
WIRE 6496 6112 6496 6048
WIRE 6512 6112 6496 6112
WIRE 6656 6112 6656 5760
WIRE 6688 6112 6656 6112
WIRE 7312 6112 7280 6112
WIRE 7456 6112 7456 6096
WIRE 7456 6112 7312 6112
WIRE 7536 6112 7504 6112
WIRE 4544 6128 4544 6080
WIRE 6160 6128 6128 6128
WIRE 6240 6128 6240 6064
WIRE 6240 6128 6160 6128
WIRE 6528 6128 6528 6112
WIRE 6640 6128 6640 5840
WIRE 6688 6128 6640 6128
WIRE 7520 6128 7520 6064
WIRE 7536 6128 7520 6128
WIRE 6624 6144 6624 5952
WIRE 6688 6144 6624 6144
WIRE 7312 6144 7280 6144
WIRE 7440 6144 7312 6144
WIRE 7552 6144 7552 6128
WIRE 6160 6160 6128 6160
WIRE 6256 6160 6256 6080
WIRE 6256 6160 6160 6160
WIRE 6608 6160 6608 6064
WIRE 6688 6160 6608 6160
WIRE 6832 6160 6752 6160
WIRE 6848 6160 6832 6160
WIRE 4160 6176 4160 5984
WIRE 4224 6176 4160 6176
WIRE 4384 6176 4384 6080
WIRE 4384 6176 4304 6176
WIRE 4480 6176 4384 6176
WIRE 6688 6176 6640 6176
WIRE 7696 6176 7696 6080
WIRE 7744 6176 7696 6176
WIRE 3664 6192 3664 6048
WIRE 3760 6192 3760 5904
WIRE 3840 6192 3840 5744
WIRE 3952 6192 3952 5632
WIRE 6160 6192 6128 6192
WIRE 6272 6192 6272 5968
WIRE 6272 6192 6160 6192
WIRE 6704 6192 6704 6176
WIRE 7520 6192 7520 6128
WIRE 7536 6192 7520 6192
WIRE 7744 6192 7664 6192
WIRE 6288 6208 6288 5824
WIRE 6304 6208 6288 6208
WIRE 7472 6208 7472 6080
WIRE 7536 6208 7472 6208
WIRE 7664 6208 7664 6192
WIRE 7664 6208 7600 6208
WIRE 7744 6208 7680 6208
WIRE 6240 6224 6240 6128
WIRE 6304 6224 6240 6224
WIRE 7440 6224 7440 6144
WIRE 7536 6224 7440 6224
WIRE 7744 6224 7696 6224
WIRE 7920 6224 7808 6224
WIRE 8080 6224 7984 6224
WIRE 6256 6240 6256 6160
WIRE 6304 6240 6256 6240
WIRE 7504 6240 7504 6112
WIRE 7536 6240 7504 6240
WIRE 7744 6240 7728 6240
WIRE 4544 6256 4544 6224
WIRE 6272 6256 6272 6192
WIRE 6304 6256 6272 6256
WIRE 6400 6256 6400 6096
WIRE 6400 6256 6368 6256
WIRE 7520 6256 7520 6192
WIRE 7536 6256 7520 6256
WIRE 7920 6256 7920 6240
WIRE 6176 6272 6128 6272
WIRE 6304 6272 6176 6272
WIRE 7552 6272 7552 6256
WIRE 6320 6288 6320 6272
WIRE 7728 6288 7728 6240
WIRE 7760 6288 7760 6240
WIRE 7760 6288 7728 6288
WIRE 7760 6304 7760 6288
WIRE 7520 6320 7520 6256
WIRE 7536 6320 7520 6320
WIRE 7456 6336 7456 6112
WIRE 7536 6336 7456 6336
WIRE 7680 6336 7680 6208
WIRE 7680 6336 7600 6336
WIRE 6176 6352 6128 6352
WIRE 6464 6352 6464 5712
WIRE 6464 6352 6176 6352
WIRE 7440 6352 7440 6224
WIRE 7536 6352 7440 6352
WIRE 7504 6368 7504 6240
WIRE 7536 6368 7504 6368
WIRE 3664 6384 3664 6272
WIRE 3664 6384 3424 6384
WIRE 3760 6384 3760 6272
WIRE 3760 6384 3664 6384
WIRE 3840 6384 3840 6272
WIRE 3840 6384 3760 6384
WIRE 3952 6384 3952 6272
WIRE 3952 6384 3840 6384
WIRE 4544 6384 4544 6336
WIRE 4544 6384 3952 6384
WIRE 4720 6384 4544 6384
WIRE 7520 6384 7520 6320
WIRE 7536 6384 7520 6384
WIRE 7552 6400 7552 6384
WIRE 3424 6432 3424 6384
WIRE 6176 6432 6128 6432
WIRE 6640 6432 6640 6176
WIRE 6640 6432 6176 6432
WIRE 7312 6432 7280 6432
WIRE 7504 6432 7504 6368
WIRE 7504 6432 7312 6432
WIRE 7312 6480 7280 6480
WIRE 7696 6480 7696 6224
WIRE 7696 6480 7312 6480
WIRE 3712 6736 3648 6736
WIRE 4032 6736 3792 6736
WIRE 4464 6736 4032 6736
WIRE 4912 6736 4464 6736
WIRE 5440 6736 4912 6736
WIRE 5728 6736 5440 6736
WIRE 5872 6736 5728 6736
WIRE 5984 6736 5872 6736
WIRE 6784 6736 5984 6736
WIRE 7552 6736 6784 6736
WIRE 7728 6736 7552 6736
WIRE 6784 6752 6784 6736
WIRE 7552 6752 7552 6736
WIRE 5440 6768 5440 6736
WIRE 5728 6768 5728 6736
WIRE 5872 6768 5872 6736
WIRE 5984 6768 5984 6736
WIRE 4032 6800 4032 6736
WIRE 4464 6800 4464 6736
WIRE 4912 6800 4912 6736
WIRE 5984 6960 5984 6848
WIRE 6784 6960 6784 6832
WIRE 7552 6960 7552 6832
WIRE 4032 7008 4032 6880
WIRE 4032 7008 3968 7008
WIRE 4080 7008 4032 7008
WIRE 4208 7008 4080 7008
WIRE 5920 7008 4208 7008
WIRE 6480 7008 6384 7008
WIRE 6624 7008 6560 7008
WIRE 6720 7008 6624 7008
WIRE 7248 7008 7152 7008
WIRE 7392 7008 7328 7008
WIRE 7488 7008 7392 7008
WIRE 6384 7072 6384 7008
WIRE 7152 7072 7152 7008
WIRE 5872 7104 5872 6848
WIRE 6624 7104 6624 7008
WIRE 6672 7104 6624 7104
WIRE 6784 7104 6784 7056
WIRE 6784 7104 6736 7104
WIRE 7392 7104 7392 7008
WIRE 7440 7104 7392 7104
WIRE 7552 7104 7552 7056
WIRE 7552 7104 7504 7104
WIRE 6320 7120 6272 7120
WIRE 7088 7120 7040 7120
WIRE 4464 7152 4464 6880
WIRE 4464 7152 4400 7152
WIRE 4512 7152 4464 7152
WIRE 4640 7152 4512 7152
WIRE 5808 7152 4640 7152
WIRE 6784 7152 6784 7104
WIRE 7552 7152 7552 7104
WIRE 3584 7200 3552 7200
WIRE 3616 7200 3584 7200
WIRE 3840 7200 3696 7200
WIRE 4304 7200 3840 7200
WIRE 5728 7232 5728 6848
WIRE 3584 7280 3552 7280
WIRE 3616 7280 3584 7280
WIRE 3792 7280 3696 7280
WIRE 4784 7280 3792 7280
WIRE 4912 7280 4912 6880
WIRE 4912 7280 4848 7280
WIRE 4960 7280 4912 7280
WIRE 5088 7280 4960 7280
WIRE 5664 7280 5088 7280
WIRE 3584 7360 3552 7360
WIRE 3616 7360 3584 7360
WIRE 4256 7360 3696 7360
WIRE 4736 7360 4256 7360
WIRE 6784 7376 6784 7232
WIRE 6880 7376 6784 7376
WIRE 7040 7376 7040 7120
WIRE 7040 7376 6880 7376
WIRE 7552 7376 7552 7232
WIRE 7648 7376 7552 7376
WIRE 4080 7488 4080 7008
WIRE 4512 7488 4512 7152
WIRE 4960 7488 4960 7280
WIRE 5440 7504 5440 6848
WIRE 6784 7520 6784 7376
WIRE 7552 7520 7552 7376
WIRE 3840 7536 3840 7200
WIRE 4016 7536 3840 7536
WIRE 4304 7536 4304 7200
WIRE 4448 7536 4304 7536
WIRE 4784 7536 4784 7280
WIRE 4896 7536 4784 7536
WIRE 5376 7552 5344 7552
WIRE 3968 7568 3968 7008
WIRE 4400 7568 4400 7152
WIRE 4848 7568 4848 7280
WIRE 3792 7616 3792 7280
WIRE 3904 7616 3792 7616
WIRE 4256 7616 4256 7360
WIRE 4336 7616 4256 7616
WIRE 4736 7616 4736 7360
WIRE 4784 7616 4736 7616
WIRE 6688 7632 6624 7632
WIRE 6784 7632 6784 7600
WIRE 6784 7632 6752 7632
WIRE 7456 7632 7392 7632
WIRE 7552 7632 7552 7600
WIRE 7552 7632 7520 7632
WIRE 6784 7680 6784 7632
WIRE 7552 7680 7552 7632
WIRE 4208 7712 4208 7008
WIRE 4640 7712 4640 7152
WIRE 5088 7712 5088 7280
WIRE 5440 7728 5440 7600
WIRE 5728 7728 5728 7328
WIRE 5728 7728 5440 7728
WIRE 5872 7728 5872 7200
WIRE 5872 7728 5728 7728
WIRE 5984 7728 5984 7056
WIRE 5984 7728 5872 7728
WIRE 6272 7728 6272 7120
WIRE 6272 7728 5984 7728
WIRE 6464 7728 6272 7728
WIRE 6624 7728 6624 7632
WIRE 6624 7728 6544 7728
WIRE 6720 7728 6624 7728
WIRE 7040 7728 7040 7376
WIRE 7232 7728 7040 7728
WIRE 7392 7728 7392 7632
WIRE 7392 7728 7312 7728
WIRE 7488 7728 7392 7728
WIRE 4144 7760 4128 7760
WIRE 4576 7760 4560 7760
WIRE 5024 7760 5008 7760
WIRE 6384 7776 6384 7168
WIRE 7152 7776 7152 7168
WIRE 5984 7808 5984 7728
WIRE 6784 7808 6784 7776
WIRE 7552 7808 7552 7776
WIRE 3968 7840 3968 7664
WIRE 4080 7840 4080 7584
WIRE 4208 7840 4208 7808
WIRE 4400 7840 4400 7664
WIRE 4512 7840 4512 7584
WIRE 4640 7840 4640 7808
WIRE 4848 7840 4848 7664
WIRE 4960 7840 4960 7584
WIRE 5088 7840 5088 7808
WIRE 3968 7936 3968 7920
WIRE 3968 7936 3760 7936
WIRE 4080 7936 4080 7920
WIRE 4080 7936 3968 7936
WIRE 4208 7936 4208 7920
WIRE 4208 7936 4080 7936
WIRE 4400 7936 4400 7920
WIRE 4400 7936 4208 7936
WIRE 4512 7936 4512 7920
WIRE 4512 7936 4400 7936
WIRE 4640 7936 4640 7920
WIRE 4640 7936 4512 7936
WIRE 4848 7936 4848 7920
WIRE 4848 7936 4640 7936
WIRE 4960 7936 4960 7920
WIRE 4960 7936 4848 7936
WIRE 5088 7936 5088 7920
WIRE 5088 7936 4960 7936
WIRE 5984 7936 5984 7888
WIRE 5984 7936 5088 7936
WIRE 6384 7936 6384 7856
WIRE 6384 7936 5984 7936
WIRE 6784 7936 6784 7888
WIRE 6784 7936 6384 7936
WIRE 7152 7936 7152 7856
WIRE 7152 7936 6784 7936
WIRE 7552 7936 7552 7888
WIRE 7552 7936 7152 7936
WIRE 7728 7936 7552 7936
WIRE 3760 7984 3760 7936
WIRE 4128 8000 4128 7760
WIRE 4128 8000 3904 8000
WIRE 4560 8000 4560 7760
WIRE 4560 8000 4128 8000
WIRE 5008 8000 5008 7760
WIRE 5008 8000 4560 8000
WIRE 5024 8208 4976 8208
WIRE 5344 8208 5344 7552
WIRE 5344 8208 5024 8208
FLAG -528 128 0
FLAG -528 0 VCC
FLAG -1120 3472 0
FLAG 96 2864 NAN2
FLAG -1104 2624 BIT0
FLAG -1056 2320 VCC
FLAG -1104 3056 BIT1
FLAG 1040 3456 0
FLAG 2256 2848 NAND4
FLAG 896 2608 BIT0
FLAG 1104 2304 VCC
FLAG 896 2720 BIT1
FLAG 880 2880 BIT2
FLAG 880 3056 BIT3
FLAG -1152 4960 0
FLAG 64 4352 NOR2
FLAG -1136 4208 BIT0
FLAG -1088 3904 VCC
FLAG -1136 4304 BIT1
FLAG 960 4944 0
FLAG 2176 4336 NOR4
FLAG 976 4192 BIT0
FLAG 1024 3888 VCC
FLAG 976 4288 BIT1
FLAG 976 4416 BIT2
FLAG 976 4592 BIT3
FLAG 3264 3456 0
FLAG 4768 2848 NOT_AND_OR
FLAG 3120 2608 BIT0
FLAG 3248 2304 VCC
FLAG 3120 2720 BIT1
FLAG 3104 2880 BIT2
FLAG 3104 3056 BIT3
FLAG 8112 4528 T_OUT
FLAG 3344 5136 0
FLAG 3280 4384 A_IN
FLAG 3408 3888 VCC
FLAG 3280 4480 B_IN
FLAG 3280 4592 C_IN
FLAG 6256 5360 _ADD_EN
FLAG 3424 6432 0
FLAG 6880 7376 _CARRY_OUT
FLAG 5024 8208 COUT_1
FLAG 3584 7200 A_IN
FLAG 3584 7280 B_IN
FLAG 3584 7360 C_IN
FLAG 3760 7984 0
FLAG 3648 6736 VCC
FLAG 3904 8000 COUT_0
FLAG 7648 7376 CARRY_OUT
FLAG 6528 6016 0
FLAG 6528 6128 0
FLAG 6704 6192 0
FLAG 6320 6288 0
FLAG 6528 5904 0
FLAG 6528 5792 0
FLAG 7552 6400 0
FLAG 7552 6272 0
FLAG 7760 6304 0
FLAG 7920 6256 0
FLAG 7552 6144 0
FLAG 7488 6048 VCC
FLAG 6176 5824 VCC
FLAG 5568 3296 0
FLAG 5376 3312 0
FLAG 5472 3200 A_IN
FLAG 5872 3200 B_IN
FLAG 5968 3296 0
FLAG 6224 3200 C_IN
FLAG 6368 3296 0
FLAG 6496 3040 _ADD_EN
FLAG 6768 3296 0
FLAG 7072 3200 _AND_EN
FLAG 7168 3296 0
FLAG 7488 3200 _OR_EN
FLAG 6160 6128 A_IN
FLAG 6160 6160 B_IN
FLAG 6160 6192 C_IN
FLAG 6176 6272 _AND_EN
FLAG 6176 6352 _OR_EN
FLAG 6176 6432 _ADD_EN
FLAG 6832 6160 L_OUT
FLAG 7312 6080 A_IN
FLAG 7312 6112 B_IN
FLAG 7312 6144 C_IN
FLAG 3296 6000 _AND_EN
FLAG 3312 4720 _OR_EN
FLAG 6864 2912 COUT_0
FLAG 7328 2880 COUT_1
FLAG 7312 6432 COUT_0
FLAG 7312 6480 COUT_1
SYMBOL voltage -528 16 R0
WINDOW 123 0 0 Left 0
WINDOW 39 0 0 Left 0
SYMATTR InstName VCC
SYMATTR Value {VCC}
SYMBOL res -336 3232 R270
WINDOW 0 32 56 VTop 2
WINDOW 3 0 56 VBottom 2
SYMATTR InstName R85
SYMATTR Value {Rb}
SYMBOL npn -64 3168 R0
SYMATTR InstName Q9
SYMATTR Value 2N3904
SYMBOL schottky -96 3136 R270
WINDOW 0 32 32 VTop 2
WINDOW 3 0 32 VBottom 2
SYMATTR InstName D25
SYMATTR Value BAT54
SYMATTR Description Diode
SYMATTR Type diode
SYMBOL pnp -64 2544 M180
SYMATTR InstName Q10
SYMATTR Value 2N3906
SYMBOL schottky -48 2576 R90
WINDOW 0 0 32 VBottom 2
WINDOW 3 32 32 VTop 2
SYMATTR InstName D26
SYMATTR Value BAT54
SYMATTR Description Diode
SYMATTR Type diode
SYMBOL res -208 2480 R90
WINDOW 0 0 56 VBottom 2
WINDOW 3 32 56 VTop 2
SYMATTR InstName R86
SYMATTR Value {Rb}
SYMBOL res -1008 2336 R270
WINDOW 0 32 56 VTop 2
WINDOW 3 0 56 VBottom 2
SYMATTR InstName R158
SYMATTR Value 1m
SYMBOL res -1088 2640 R270
WINDOW 0 32 56 VTop 2
WINDOW 3 0 56 VBottom 2
SYMATTR InstName R160
SYMATTR Value 1m
SYMBOL npn -576 2928 R0
SYMATTR InstName Q11
SYMATTR Value 2N3904
SYMBOL pnp -784 2672 M180
SYMATTR InstName Q12
SYMATTR Value 2N3906
SYMBOL res -528 2336 R0
SYMATTR InstName R168
SYMATTR Value 1m
SYMBOL res -16 2320 R0
SYMATTR InstName R169
SYMATTR Value 1m
SYMBOL res -736 3216 R0
SYMATTR InstName R170
SYMATTR Value 1m
SYMBOL res -16 3280 R0
SYMATTR InstName R171
SYMATTR Value 1m
SYMBOL res -16 2624 R0
SYMATTR InstName R172
SYMATTR Value 1m
SYMBOL res -16 2992 R0
SYMATTR InstName R173
SYMATTR Value 1m
SYMBOL pnp -896 3104 M180
SYMATTR InstName Q17
SYMATTR Value 2N3906
SYMBOL res -1088 3072 R270
WINDOW 0 32 56 VTop 2
WINDOW 3 0 56 VBottom 2
SYMATTR InstName R174
SYMATTR Value 1m
SYMBOL res -848 3216 R0
SYMATTR InstName R175
SYMATTR Value 1m
SYMBOL res 1824 3216 R270
WINDOW 0 32 56 VTop 2
WINDOW 3 0 56 VBottom 2
SYMATTR InstName R6
SYMATTR Value {Rb}
SYMBOL npn 2096 3152 R0
SYMATTR InstName Q1
SYMATTR Value 2N3904
SYMBOL schottky 2064 3120 R270
WINDOW 0 32 32 VTop 2
WINDOW 3 0 32 VBottom 2
SYMATTR InstName D1
SYMATTR Value BAT54
SYMATTR Description Diode
SYMATTR Type diode
SYMBOL pnp 2096 2528 M180
SYMATTR InstName Q2
SYMATTR Value 2N3906
SYMBOL schottky 2112 2560 R90
WINDOW 0 0 32 VBottom 2
WINDOW 3 32 32 VTop 2