Version 4
SHEET 1 14868 7364
WIRE -528 32 -528 0
WIRE -528 128 -528 112
WIRE -1808 1296 -1872 1296
WIRE -816 1296 -1728 1296
WIRE -112 1296 -816 1296
WIRE 496 1296 -112 1296
WIRE 1168 1296 496 1296
WIRE 1824 1296 1168 1296
WIRE 2432 1296 1824 1296
WIRE 3104 1296 2432 1296
WIRE 3760 1296 3104 1296
WIRE -816 1424 -816 1296
WIRE -112 1424 -112 1296
WIRE 496 1424 496 1296
WIRE 1168 1424 1168 1296
WIRE 1824 1424 1824 1296
WIRE 2432 1424 2432 1296
WIRE 3104 1424 3104 1296
WIRE 3760 1424 3760 1296
WIRE -880 1472 -992 1472
WIRE -288 1472 -432 1472
WIRE -176 1472 -288 1472
WIRE 320 1472 176 1472
WIRE 432 1472 320 1472
WIRE 992 1472 848 1472
WIRE 1104 1472 992 1472
WIRE 1648 1472 1504 1472
WIRE 1760 1472 1648 1472
WIRE 2256 1472 2112 1472
WIRE 2368 1472 2256 1472
WIRE 2928 1472 2784 1472
WIRE 3040 1472 2928 1472
WIRE 3584 1472 3440 1472
WIRE 3696 1472 3584 1472
WIRE -992 1568 -992 1472
WIRE -992 1568 -1072 1568
WIRE -928 1568 -992 1568
WIRE -816 1568 -816 1520
WIRE -816 1568 -864 1568
WIRE -288 1568 -288 1472
WIRE -224 1568 -288 1568
WIRE -112 1568 -112 1520
WIRE -112 1568 -160 1568
WIRE 48 1568 -112 1568
WIRE 176 1568 176 1472
WIRE 176 1568 128 1568
WIRE 320 1568 320 1472
WIRE 384 1568 320 1568
WIRE 496 1568 496 1520
WIRE 496 1568 448 1568
WIRE 720 1568 496 1568
WIRE 848 1568 848 1472
WIRE 848 1568 800 1568
WIRE 992 1568 992 1472
WIRE 1056 1568 992 1568
WIRE 1168 1568 1168 1520
WIRE 1168 1568 1120 1568
WIRE 1376 1568 1168 1568
WIRE 1504 1568 1504 1472
WIRE 1504 1568 1456 1568
WIRE 1648 1568 1648 1472
WIRE 1712 1568 1648 1568
WIRE 1824 1568 1824 1520
WIRE 1824 1568 1776 1568
WIRE 1984 1568 1824 1568
WIRE 2112 1568 2112 1472
WIRE 2112 1568 2064 1568
WIRE 2256 1568 2256 1472
WIRE 2320 1568 2256 1568
WIRE 2432 1568 2432 1520
WIRE 2432 1568 2384 1568
WIRE 2656 1568 2432 1568
WIRE 2784 1568 2784 1472
WIRE 2784 1568 2736 1568
WIRE 2928 1568 2928 1472
WIRE 2992 1568 2928 1568
WIRE 3104 1568 3104 1520
WIRE 3104 1568 3056 1568
WIRE 3312 1568 3104 1568
WIRE 3440 1568 3440 1472
WIRE 3440 1568 3392 1568
WIRE 3584 1568 3584 1472
WIRE 3648 1568 3584 1568
WIRE 3760 1568 3760 1520
WIRE 3760 1568 3712 1568
WIRE -816 1584 -816 1568
WIRE -560 1584 -816 1584
WIRE -432 1584 -432 1472
WIRE -432 1584 -480 1584
WIRE -1920 1600 -1952 1600
WIRE -1456 1600 -1920 1600
WIRE -1072 1600 -1072 1568
WIRE -816 1648 -816 1584
WIRE -112 1648 -112 1568
WIRE 496 1648 496 1568
WIRE 1168 1648 1168 1568
WIRE 1824 1648 1824 1568
WIRE 2432 1648 2432 1568
WIRE 3104 1648 3104 1568
WIRE 3760 1648 3760 1568
WIRE -816 1760 -816 1728
WIRE -720 1760 -816 1760
WIRE -112 1760 -112 1728
WIRE -16 1760 -112 1760
WIRE 496 1760 496 1728
WIRE 592 1760 496 1760
WIRE 1168 1760 1168 1728
WIRE 1264 1760 1168 1760
WIRE 1824 1760 1824 1728
WIRE 1920 1760 1824 1760
WIRE 2432 1760 2432 1728
WIRE 2528 1760 2432 1760
WIRE 3104 1760 3104 1728
WIRE 3200 1760 3104 1760
WIRE 3760 1760 3760 1728
WIRE 3840 1760 3760 1760
WIRE 3856 1760 3840 1760
WIRE -1072 1776 -1072 1680
WIRE -112 1808 -112 1760
WIRE 496 1808 496 1760
WIRE 1168 1808 1168 1760
WIRE 1824 1808 1824 1760
WIRE 2432 1808 2432 1760
WIRE 3104 1808 3104 1760
WIRE 3760 1808 3760 1760
WIRE -1136 1824 -1200 1824
WIRE -816 1824 -816 1760
WIRE -1200 1936 -1200 1824
WIRE -112 1968 -112 1888
WIRE 64 1968 -112 1968
WIRE 176 1968 144 1968
WIRE 496 1968 496 1888
WIRE 736 1968 496 1968
WIRE 848 1968 816 1968
WIRE 1168 1968 1168 1888
WIRE 1392 1968 1168 1968
WIRE 1504 1968 1472 1968
WIRE 1824 1968 1824 1888
WIRE 2000 1968 1824 1968
WIRE 2112 1968 2080 1968
WIRE 2432 1968 2432 1888
WIRE 2672 1968 2432 1968
WIRE 2784 1968 2752 1968
WIRE 3104 1968 3104 1888
WIRE 3328 1968 3104 1968
WIRE 3440 1968 3408 1968
WIRE -816 1984 -816 1904
WIRE -544 1984 -816 1984
WIRE -432 1984 -464 1984
WIRE -912 2000 -976 2000
WIRE -816 2000 -816 1984
WIRE -816 2000 -848 2000
WIRE -208 2000 -272 2000
WIRE -112 2000 -112 1968
WIRE -112 2000 -144 2000
WIRE 400 2000 336 2000
WIRE 496 2000 496 1968
WIRE 496 2000 464 2000
WIRE 1072 2000 1008 2000
WIRE 1168 2000 1168 1968
WIRE 1168 2000 1136 2000
WIRE 1728 2000 1664 2000
WIRE 1824 2000 1824 1968
WIRE 1824 2000 1792 2000
WIRE 2336 2000 2272 2000
WIRE 2432 2000 2432 1968
WIRE 2432 2000 2400 2000
WIRE 3008 2000 2944 2000
WIRE 3104 2000 3104 1968
WIRE 3104 2000 3072 2000
WIRE 3664 2000 3600 2000
WIRE 3760 2000 3760 1888
WIRE 3760 2000 3728 2000
WIRE -816 2048 -816 2000
WIRE -112 2048 -112 2000
WIRE 496 2048 496 2000
WIRE 1168 2048 1168 2000
WIRE 1824 2048 1824 2000
WIRE 2432 2048 2432 2000
WIRE 3104 2048 3104 2000
WIRE 3760 2048 3760 2000
WIRE -1456 2096 -1456 1600
WIRE -1200 2096 -1200 2016
WIRE -1200 2096 -1456 2096
WIRE -1168 2096 -1200 2096
WIRE -976 2096 -976 2000
WIRE -976 2096 -1088 2096
WIRE -880 2096 -976 2096
WIRE -432 2096 -432 1984
WIRE -272 2096 -272 2000
WIRE -272 2096 -432 2096
WIRE -176 2096 -272 2096
WIRE 176 2096 176 1968
WIRE 336 2096 336 2000
WIRE 336 2096 176 2096
WIRE 432 2096 336 2096
WIRE 848 2096 848 1968
WIRE 1008 2096 1008 2000
WIRE 1008 2096 848 2096
WIRE 1104 2096 1008 2096
WIRE 1504 2096 1504 1968
WIRE 1664 2096 1664 2000
WIRE 1664 2096 1504 2096
WIRE 1760 2096 1664 2096
WIRE 2112 2096 2112 1968
WIRE 2272 2096 2272 2000
WIRE 2272 2096 2112 2096
WIRE 2368 2096 2272 2096
WIRE 2784 2096 2784 1968
WIRE 2944 2096 2944 2000
WIRE 2944 2096 2784 2096
WIRE 3040 2096 2944 2096
WIRE 3440 2096 3440 1968
WIRE 3600 2096 3600 2000
WIRE 3600 2096 3440 2096
WIRE 3696 2096 3600 2096
WIRE -1072 2304 -1072 1872
WIRE -1072 2304 -1936 2304
WIRE -816 2304 -816 2144
WIRE -816 2304 -1072 2304
WIRE -112 2304 -112 2144
WIRE -112 2304 -816 2304
WIRE 496 2304 496 2144
WIRE 496 2304 -112 2304
WIRE 1168 2304 1168 2144
WIRE 1168 2304 496 2304
WIRE 1824 2304 1824 2144
WIRE 1824 2304 1168 2304
WIRE 2432 2304 2432 2144
WIRE 2432 2304 1824 2304
WIRE 3104 2304 3104 2144
WIRE 3104 2304 2432 2304
WIRE 3760 2304 3760 2144
WIRE 3760 2304 3104 2304
WIRE -1936 2352 -1936 2304
WIRE 3840 2448 3840 1760
WIRE 3840 2448 1696 2448
WIRE 2128 2608 2064 2608
WIRE 2400 2608 2208 2608
WIRE 2608 2608 2400 2608
WIRE 3120 2608 2608 2608
WIRE 3456 2608 3120 2608
WIRE 3664 2608 3456 2608
WIRE 4176 2608 3664 2608
WIRE 4352 2608 4176 2608
WIRE 3120 2624 3120 2608
WIRE 4176 2624 4176 2608
WIRE -2112 2640 -2176 2640
WIRE -1216 2640 -2032 2640
WIRE -656 2640 -1216 2640
WIRE -400 2640 -464 2640
WIRE -272 2640 -320 2640
WIRE 2400 2656 2400 2608
WIRE 3456 2656 3456 2608
WIRE 5568 2656 5504 2656
WIRE 6400 2656 5648 2656
WIRE 6768 2656 6400 2656
WIRE 6912 2656 6848 2656
WIRE 6400 2688 6400 2656
WIRE -1216 2704 -1216 2640
WIRE -272 2704 -272 2640
WIRE 6768 2704 6768 2656
WIRE 3120 2736 3120 2704
WIRE 4176 2736 4176 2704
WIRE -656 2768 -656 2640
WIRE 2400 2784 2400 2736
WIRE 2816 2784 2400 2784
WIRE 2960 2784 2896 2784
WIRE 3056 2784 2960 2784
WIRE 3456 2784 3456 2736
WIRE 3872 2784 3456 2784
WIRE 4016 2784 3952 2784
WIRE 4112 2784 4016 2784
WIRE -720 2816 -832 2816
WIRE 2400 2864 2400 2784
WIRE 2608 2864 2608 2608
WIRE 3456 2864 3456 2784
WIRE 3664 2864 3664 2608
WIRE 2960 2880 2960 2784
WIRE 3008 2880 2960 2880
WIRE 3120 2880 3120 2832
WIRE 3120 2880 3072 2880
WIRE 4016 2880 4016 2784
WIRE 4064 2880 4016 2880
WIRE 4176 2880 4176 2832
WIRE 4176 2880 4128 2880
WIRE -1216 2912 -1216 2784
WIRE -832 2912 -832 2816
WIRE -832 2912 -1216 2912
WIRE -768 2912 -832 2912
WIRE -656 2912 -656 2864
WIRE -656 2912 -704 2912
WIRE 1696 2912 1696 2448
WIRE 1984 2912 1696 2912
WIRE 2272 2912 2064 2912
WIRE 2336 2912 2272 2912
WIRE 2544 2912 2496 2912
WIRE 3392 2912 3328 2912
WIRE 3600 2912 3552 2912
WIRE 6336 2912 6144 2912
WIRE 3120 2944 3120 2880
WIRE 4176 2944 4176 2880
WIRE 6672 2944 6608 2944
WIRE 6768 2944 6768 2784
WIRE 6768 2944 6736 2944
WIRE -1216 2992 -1216 2912
WIRE 6768 2992 6768 2944
WIRE 6992 3024 6992 2656
WIRE 2272 3040 2272 2912
WIRE 2496 3040 2496 2912
WIRE 2496 3040 2272 3040
WIRE 3328 3040 3328 2912
WIRE 3552 3040 3552 2912
WIRE 3552 3040 3328 3040
WIRE 6400 3040 6400 2768
WIRE 6544 3040 6400 3040
WIRE 6704 3040 6544 3040
WIRE 3120 3072 3120 3024
WIRE 3216 3072 3120 3072
WIRE 3328 3072 3328 3040
WIRE 3328 3072 3216 3072
WIRE 4176 3072 4176 3024
WIRE 4272 3072 4176 3072
WIRE 4384 3072 4272 3072
WIRE 6400 3104 6400 3040
WIRE -1216 3136 -1216 3056
WIRE -272 3136 -272 2784
WIRE -656 3152 -656 2912
WIRE 3120 3152 3120 3072
WIRE 4176 3152 4176 3072
WIRE 6768 3184 6768 3088
WIRE 6896 3184 6768 3184
WIRE 6992 3184 6992 3104
WIRE 6992 3184 6896 3184
WIRE 7024 3184 6992 3184
WIRE 7040 3184 7024 3184
WIRE 6400 3216 6400 3168
WIRE 6768 3264 6768 3184
WIRE -1680 3280 -1712 3280
WIRE -1472 3280 -1680 3280
WIRE -1216 3280 -1216 3216
WIRE -1216 3280 -1392 3280
WIRE -656 3280 -656 3232
WIRE -576 3280 -656 3280
WIRE -528 3280 -576 3280
WIRE 6304 3296 6240 3296
WIRE 6400 3296 6400 3280
WIRE 6400 3296 6368 3296
WIRE 3024 3312 2960 3312
WIRE 3120 3312 3120 3232
WIRE 3120 3312 3088 3312
WIRE 4080 3312 4016 3312
WIRE 4176 3312 4176 3232
WIRE 4176 3312 4144 3312
WIRE 6400 3312 6400 3296
WIRE 6544 3312 6544 3040
WIRE 6544 3312 6400 3312
WIRE 6704 3312 6544 3312
WIRE -1216 3328 -1216 3280
WIRE -656 3328 -656 3280
WIRE -272 3328 -272 3216
WIRE 6400 3344 6400 3312
WIRE 3120 3360 3120 3312
WIRE 4176 3360 4176 3312
WIRE 5712 3392 5680 3392
WIRE 5920 3392 5712 3392
WIRE 6144 3392 6144 2912
WIRE 6144 3392 6000 3392
WIRE 6240 3392 6240 3296
WIRE 6240 3392 6144 3392
WIRE 6336 3392 6240 3392
WIRE 2608 3408 2608 2960
WIRE 2800 3408 2608 3408
WIRE 2960 3408 2960 3312
WIRE 2960 3408 2880 3408
WIRE 3056 3408 2960 3408
WIRE 3664 3408 3664 2960
WIRE 3856 3408 3664 3408
WIRE 4016 3408 4016 3312
WIRE 4016 3408 3936 3408
WIRE 4112 3408 4016 3408
WIRE 6640 3408 6608 3408
WIRE 6768 3408 6768 3360
WIRE 6768 3408 6704 3408
WIRE -1216 3472 -1216 3408
WIRE 2608 3472 2608 3408
WIRE 3664 3472 3664 3408
WIRE 6144 3472 6144 3392
WIRE 6768 3472 6768 3408
WIRE 7024 3472 7024 3184
WIRE 3120 3488 3120 3456
WIRE 4176 3488 4176 3456
WIRE -752 3504 -816 3504
WIRE -656 3504 -656 3408
WIRE -656 3504 -688 3504
WIRE 6400 3504 6400 3440
WIRE -656 3552 -656 3504
WIRE -1216 3600 -1216 3536
WIRE -816 3600 -816 3504
WIRE -816 3600 -1216 3600
WIRE -720 3600 -816 3600
WIRE 2400 3616 2400 2960
WIRE 2400 3616 2000 3616
WIRE 2608 3616 2608 3552
WIRE 2608 3616 2400 3616
WIRE 3120 3616 3120 3568
WIRE 3120 3616 2608 3616
WIRE 3456 3616 3456 2960
WIRE 3456 3616 3120 3616
WIRE 3664 3616 3664 3552
WIRE 3664 3616 3456 3616
WIRE 4176 3616 4176 3568
WIRE 4176 3616 3664 3616
WIRE 4352 3616 4176 3616
WIRE 6144 3648 6144 3552
WIRE 6144 3648 5648 3648
WIRE 6400 3648 6400 3584
WIRE 6400 3648 6144 3648
WIRE 6768 3648 6768 3552
WIRE 6768 3648 6400 3648
WIRE 7024 3648 7024 3552
WIRE 7024 3648 6768 3648
WIRE 2000 3664 2000 3616
WIRE -1216 3680 -1216 3600
WIRE -272 3680 -272 3408
WIRE 5648 3696 5648 3648
WIRE -1216 3808 -1216 3760
WIRE -1216 3808 -2240 3808
WIRE -656 3808 -656 3648
WIRE -656 3808 -1216 3808
WIRE -272 3808 -272 3760
WIRE -272 3808 -656 3808
WIRE -32 3808 -272 3808
WIRE -2240 3856 -2240 3808
WIRE 2144 3920 2080 3920
WIRE 2416 3920 2224 3920
WIRE 2704 3920 2416 3920
WIRE 3136 3920 2704 3920
WIRE 3328 3920 3232 3920
WIRE 3472 3920 3408 3920
WIRE 3680 3920 3472 3920
WIRE 4192 3920 3680 3920
WIRE 4368 3920 4192 3920
WIRE 3136 3936 3136 3920
WIRE 4192 3936 4192 3920
WIRE 2416 3968 2416 3920
WIRE 2704 3968 2704 3920
WIRE 3472 3968 3472 3920
WIRE 3136 4048 3136 4016
WIRE 4192 4048 4192 4016
WIRE 2704 4096 2704 4048
WIRE 2832 4096 2704 4096
WIRE 2976 4096 2912 4096
WIRE 3072 4096 2976 4096
WIRE 3472 4096 3472 4048
WIRE 3888 4096 3472 4096
WIRE 4032 4096 3968 4096
WIRE 4128 4096 4032 4096
WIRE -2112 4128 -2176 4128
WIRE -1584 4128 -2032 4128
WIRE -1216 4128 -1584 4128
WIRE -656 4128 -1216 4128
WIRE -400 4128 -464 4128
WIRE -272 4128 -320 4128
WIRE 336 4128 272 4128
WIRE 624 4128 416 4128
WIRE 864 4128 624 4128
WIRE -1216 4176 -1216 4128
WIRE 3472 4176 3472 4096
WIRE 3680 4176 3680 3920
WIRE -272 4192 -272 4128
WIRE 2976 4192 2976 4096
WIRE 3024 4192 2976 4192
WIRE 3136 4192 3136 4144
WIRE 3136 4192 3088 4192
WIRE 4032 4192 4032 4096
WIRE 4080 4192 4032 4192
WIRE 4192 4192 4192 4144
WIRE 4192 4192 4144 4192
WIRE 1264 4224 1264 1760
WIRE 1760 4224 1264 4224
WIRE 2048 4224 2000 4224
WIRE 2096 4224 2048 4224
WIRE 2288 4224 2176 4224
WIRE 3408 4224 3344 4224
WIRE 3616 4224 3568 4224
WIRE -656 4256 -656 4128
WIRE 3136 4256 3136 4192
WIRE 4192 4256 4192 4192
WIRE -1216 4272 -1216 4240
WIRE -720 4304 -832 4304
WIRE 3344 4352 3344 4224
WIRE 3568 4352 3568 4224
WIRE 3568 4352 3344 4352
WIRE 2704 4384 2704 4096
WIRE 3136 4384 3136 4336
WIRE 3232 4384 3136 4384
WIRE 3344 4384 3344 4352
WIRE 3344 4384 3232 4384
WIRE 4192 4384 4192 4336
WIRE 4288 4384 4192 4384
WIRE 4400 4384 4288 4384
WIRE -1216 4400 -1216 4352
WIRE -832 4400 -832 4304
WIRE -832 4400 -1216 4400
WIRE -768 4400 -832 4400
WIRE -656 4400 -656 4352
WIRE -656 4400 -704 4400
WIRE 2640 4432 2560 4432
WIRE 3136 4464 3136 4384
WIRE 4192 4464 4192 4384
WIRE 2560 4496 2560 4432
WIRE 2416 4592 2416 4048
WIRE -1216 4624 -1216 4400
WIRE -272 4624 -272 4272
WIRE 3040 4624 2976 4624
WIRE 3136 4624 3136 4544
WIRE 3136 4624 3104 4624
WIRE 4096 4624 4032 4624
WIRE 4192 4624 4192 4544
WIRE 4192 4624 4160 4624
WIRE -656 4640 -656 4400
WIRE 2288 4640 2288 4224
WIRE 2352 4640 2288 4640
WIRE 3136 4672 3136 4624
WIRE 4192 4672 4192 4624
WIRE 2560 4720 2560 4576
WIRE 2640 4720 2560 4720
WIRE 2816 4720 2640 4720
WIRE 2976 4720 2976 4624
WIRE 2976 4720 2896 4720
WIRE 3072 4720 2976 4720
WIRE 3680 4720 3680 4272
WIRE 3872 4720 3680 4720
WIRE 4032 4720 4032 4624
WIRE 4032 4720 3952 4720
WIRE 4128 4720 4032 4720
WIRE -1680 4768 -1712 4768
WIRE -1472 4768 -1680 4768
WIRE -1216 4768 -1216 4704
WIRE -1216 4768 -1392 4768
WIRE -656 4768 -656 4720
WIRE -576 4768 -656 4768
WIRE -528 4768 -576 4768
WIRE -272 4768 -272 4704
WIRE -272 4768 -448 4768
WIRE 2416 4768 2416 4688
WIRE 3680 4784 3680 4720
WIRE 3136 4800 3136 4768
WIRE 4192 4800 4192 4768
WIRE -1216 4816 -1216 4768
WIRE -656 4816 -656 4768
WIRE -272 4816 -272 4768
WIRE 624 4896 624 4128
WIRE 2416 4928 2416 4848
WIRE 2416 4928 2016 4928
WIRE 2704 4928 2704 4480
WIRE 2704 4928 2416 4928
WIRE 3136 4928 3136 4880
WIRE 3136 4928 2704 4928
WIRE 3472 4928 3472 4272
WIRE 3472 4928 3136 4928
WIRE 3680 4928 3680 4864
WIRE 3680 4928 3472 4928
WIRE 4192 4928 4192 4880
WIRE 4192 4928 3680 4928
WIRE 4368 4928 4192 4928
WIRE 2016 4976 2016 4928
WIRE -752 4992 -816 4992
WIRE -656 4992 -656 4896
WIRE -656 4992 -688 4992
WIRE -656 5040 -656 4992
WIRE -1584 5056 -1584 4128
WIRE 864 5056 864 4128
WIRE -1216 5088 -1216 4896
WIRE -816 5088 -816 4992
WIRE -816 5088 -1216 5088
WIRE -720 5088 -816 5088
WIRE -2240 5104 -2272 5104
WIRE -2032 5104 -2240 5104
WIRE -1824 5104 -1952 5104
WIRE -1776 5104 -1824 5104
WIRE -1648 5104 -1712 5104
WIRE 208 5104 176 5104
WIRE 416 5104 208 5104
WIRE 624 5104 624 4976
WIRE 624 5104 496 5104
WIRE 800 5104 624 5104
WIRE -1216 5168 -1216 5088
WIRE -272 5168 -272 4896
WIRE -1584 5184 -1584 5152
WIRE 864 5184 864 5152
WIRE -1824 5216 -1824 5104
WIRE 624 5216 624 5104
WIRE -1216 5280 -1216 5248
WIRE -1824 5392 -1824 5296
WIRE -1824 5392 -2240 5392
WIRE -1584 5392 -1584 5264
WIRE -1584 5392 -1824 5392
WIRE -1216 5392 -1216 5344
WIRE -1216 5392 -1584 5392
WIRE -656 5392 -656 5136
WIRE -656 5392 -1216 5392
WIRE -272 5392 -272 5248
WIRE -272 5392 -656 5392
WIRE -32 5392 -272 5392
WIRE 624 5392 624 5296
WIRE 624 5392 208 5392
WIRE 864 5392 864 5264
WIRE 864 5392 624 5392
WIRE -2240 5440 -2240 5392
WIRE 208 5440 208 5392
FLAG -528 128 0
FLAG 352 0 BIT0
FLAG -528 0 VCC
FLAG 272 0 0
FLAG 352 160 BIT1
FLAG 272 160 0
FLAG 352 304 BIT2
FLAG 272 304 0
FLAG 352 448 BIT3
FLAG 272 448 0
FLAG 352 592 BIT4
FLAG 272 592 0
FLAG 1312 80 BIT0
FLAG 1312 160 0
FLAG 1472 80 BIT1
FLAG 1472 160 0
FLAG 1632 80 BIT2
FLAG 1632 160 0
FLAG 1792 80 BIT3
FLAG 1792 160 0
FLAG 1952 80 BIT4
FLAG 1952 160 0
FLAG -1936 2352 0
FLAG -720 1760 A2
FLAG -1920 1600 BIT0
FLAG -1872 1296 VCC
FLAG -16 1760 B2
FLAG 592 1760 C2
FLAG 1264 1760 D2
FLAG 1920 1760 E2
FLAG 2528 1760 F2
FLAG 3200 1760 G2
FLAG 3856 1760 H2
FLAG 2000 3664 0
FLAG 3216 3072 OO1
FLAG 2064 2608 VCC
FLAG 4272 3072 OO2
FLAG 2016 4976 0
FLAG 3232 4384 OB1
FLAG 2080 3920 VCC
FLAG 4288 4384 OB2
FLAG 2048 4224 BIT0
FLAG 3232 3920 VCC
FLAG 2640 4720 BIT0
FLAG -2240 3856 0
FLAG -576 3280 XX1
FLAG -1680 3280 BIT0
FLAG -2176 2640 VCC
FLAG 5648 3696 0
FLAG 5504 2656 VCC
FLAG 5712 3392 BIT0
FLAG 6896 3184 YY1
FLAG 6848 2656 VCC
FLAG -464 2640 VCC
FLAG -2240 5440 0
FLAG -576 4768 XX2
FLAG -1680 4768 BIT0
FLAG -2176 4128 VCC
FLAG -464 4128 VCC
FLAG -2240 5104 BIT0
FLAG 208 5440 0
FLAG 272 4128 VCC
FLAG 208 5104 BIT0
SYMBOL voltage -528 16 R0
WINDOW 123 0 0 Left 0
WINDOW 39 0 0 Left 0
SYMATTR InstName VCC
SYMATTR Value {VCC}
SYMBOL voltage 368 0 R90
WINDOW 123 -77 30 VRight 2
WINDOW 39 0 0 Left 0
WINDOW 0 -51 28 VRight 2
WINDOW 3 46 -379 VRight 2
SYMATTR Value2 AC 5
SYMATTR InstName V_BIT0
SYMATTR Value PULSE(0 {VCC} 0 {rise} {rise} {1/freq/2-rise} {1/freq} {16*reps})
SYMBOL voltage 368 160 R90
WINDOW 123 -77 30 VRight 2
WINDOW 39 0 0 Left 0
WINDOW 0 -51 28 VRight 2
WINDOW 3 46 -379 VRight 2
SYMATTR InstName V_BIT1
SYMATTR Value PULSE(0 {VCC} 0 {rise} {rise} {2*1/freq/2-rise} {2*1/freq} {8*reps})
SYMBOL voltage 368 304 R90
WINDOW 123 -77 30 VRight 2
WINDOW 39 0 0 Left 0
WINDOW 0 -51 28 VRight 2
WINDOW 3 46 -379 VRight 2
SYMATTR InstName V_BIT2
SYMATTR Value PULSE(0 {VCC} 0 {rise} {rise} {4*1/freq/2-rise} {4*1/freq} {4*reps})
SYMBOL voltage 368 448 R90
WINDOW 123 -77 30 VRight 2
WINDOW 39 0 0 Left 0
WINDOW 0 -51 28 VRight 2
WINDOW 3 46 -379 VRight 2
SYMATTR InstName V_BIT3
SYMATTR Value PULSE(0 {VCC} 0 {rise} {rise} {8*1/freq/2-rise} {8*1/freq} {2*reps})
SYMBOL voltage 368 592 R90
WINDOW 123 -77 30 VRight 2
WINDOW 39 0 0 Left 0
WINDOW 0 -51 28 VRight 2
WINDOW 3 46 -379 VRight 2
SYMATTR InstName V_BIT4
SYMATTR Value PULSE(0 {VCC} 0 {rise} {rise} {16*1/freq/2-rise} {16*1/freq} {1*reps})
SYMBOL res 1296 64 R0
SYMATTR InstName R1
SYMATTR Value 10Mega
SYMBOL res 1456 64 R0
SYMATTR InstName R2
SYMATTR Value 10Mega
SYMBOL res 1616 64 R0
SYMATTR InstName R3
SYMATTR Value 10Mega
SYMBOL res 1776 64 R0
SYMATTR InstName R4
SYMATTR Value 10Mega
SYMBOL res 1936 64 R0
SYMATTR InstName R5
SYMATTR Value 10Mega
SYMBOL npn -880 2048 R0
SYMATTR InstName Q75
SYMATTR Value 2N3904
SYMBOL schottky -912 2016 R270
WINDOW 0 32 32 VTop 2
WINDOW 3 0 32 VBottom 2
SYMATTR InstName D28
SYMATTR Value BAT54
SYMATTR Description Diode
SYMATTR Type diode
SYMBOL res -1824 1312 R270
WINDOW 0 32 56 VTop 2
WINDOW 3 0 56 VBottom 2
SYMATTR InstName R132
SYMATTR Value 1m
SYMBOL res -1184 2112 R270
WINDOW 0 32 56 VTop 2
WINDOW 3 0 56 VBottom 2
SYMATTR InstName R147
SYMATTR Value 500
SYMBOL pnp -880 1520 M180
SYMATTR InstName Q82
SYMATTR Value 2N3906
SYMBOL schottky -864 1552 R90
WINDOW 0 0 32 VBottom 2
WINDOW 3 32 32 VTop 2
SYMATTR InstName D29
SYMATTR Value BAT54
SYMATTR Description Diode
SYMATTR Type diode
SYMBOL pnp -1136 1872 M180
SYMATTR InstName Q83
SYMATTR Value 2N3906
SYMBOL res -1088 1584 R0
SYMATTR InstName R151
SYMATTR Value 500
SYMBOL res -1216 1920 R0
SYMATTR InstName R150
SYMATTR Value 500
SYMBOL npn -176 2048 R0
SYMATTR InstName Q80
SYMATTR Value 2N3904
SYMBOL schottky -208 2016 R270
WINDOW 0 32 32 VTop 2
WINDOW 3 0 32 VBottom 2
SYMATTR InstName D30
SYMATTR Value BAT54
SYMATTR Description Diode
SYMATTR Type diode
SYMBOL pnp -176 1520 M180
SYMATTR InstName Q81
SYMATTR Value 2N3906
SYMBOL schottky -160 1552 R90
WINDOW 0 0 32 VBottom 2
WINDOW 3 32 32 VTop 2
SYMATTR InstName D31
SYMATTR Value BAT54
SYMATTR Description Diode
SYMATTR Type diode
SYMBOL res -832 1632 R0
SYMATTR InstName R152
SYMATTR Value {Rout}
SYMBOL res -832 1808 R0
SYMATTR InstName R153
SYMATTR Value {Rout}
SYMBOL res -576 1600 R270
WINDOW 0 32 56 VTop 2
WINDOW 3 0 56 VBottom 2
SYMATTR InstName R166
SYMATTR Value {Rin}
SYMBOL res -560 2000 R270
WINDOW 0 32 56 VTop 2
WINDOW 3 0 56 VBottom 2
SYMATTR InstName R167
SYMATTR Value {Rin}
SYMBOL res -128 1632 R0
SYMATTR InstName R176
SYMATTR Value {Rout}
SYMBOL res -128 1792 R0
SYMATTR InstName R177
SYMATTR Value {Rout}
SYMBOL npn 432 2048 R0
SYMATTR InstName Q84
SYMATTR Value 2N3904
SYMBOL schottky 400 2016 R270
WINDOW 0 32 32 VTop 2
WINDOW 3 0 32 VBottom 2
SYMATTR InstName D32
SYMATTR Value BAT54
SYMATTR Description Diode
SYMATTR Type diode
SYMBOL pnp 432 1520 M180
SYMATTR InstName Q85
SYMATTR Value 2N3906
SYMBOL schottky 448 1552 R90
WINDOW 0 0 32 VBottom 2
WINDOW 3 32 32 VTop 2
SYMATTR InstName D33
SYMATTR Value BAT54
SYMATTR Description Diode
SYMATTR Type diode
SYMBOL res 32 1584 R270
WINDOW 0 32 56 VTop 2
WINDOW 3 0 56 VBottom 2
SYMATTR InstName R178
SYMATTR Value {Rin}
SYMBOL res 48 1984 R270
WINDOW 0 32 56 VTop 2
WINDOW 3 0 56 VBottom 2
SYMATTR InstName R179
SYMATTR Value {Rin}
SYMBOL res 480 1632 R0
SYMATTR InstName R180
SYMATTR Value {Rout}
SYMBOL res 480 1792 R0
SYMATTR InstName R181
SYMATTR Value {Rout}
SYMBOL npn 1104 2048 R0
SYMATTR InstName Q86
SYMATTR Value 2N3904
SYMBOL schottky 1072 2016 R270
WINDOW 0 32 32 VTop 2
WINDOW 3 0 32 VBottom 2
SYMATTR InstName D34
SYMATTR Value BAT54
SYMATTR Description Diode
SYMATTR Type diode
SYMBOL pnp 1104 1520 M180
SYMATTR InstName Q87
SYMATTR Value 2N3906
SYMBOL schottky 1120 1552 R90
WINDOW 0 0 32 VBottom 2
WINDOW 3 32 32 VTop 2
SYMATTR InstName D35
SYMATTR Value BAT54
SYMATTR Description Diode
SYMATTR Type diode
SYMBOL res 704 1584 R270
WINDOW 0 32 56 VTop 2
WINDOW 3 0 56 VBottom 2
SYMATTR InstName R182
SYMATTR Value {Rin}
SYMBOL res 720 1984 R270
WINDOW 0 32 56 VTop 2
WINDOW 3 0 56 VBottom 2
SYMATTR InstName R183
SYMATTR Value {Rin}
SYMBOL res 1152 1632 R0
SYMATTR InstName R184
SYMATTR Value {Rout}
SYMBOL res 1152 1792 R0
SYMATTR InstName R192
SYMATTR Value {Rout}
SYMBOL npn 1760 2048 R0
SYMATTR InstName Q88
SYMATTR Value 2N3904
SYMBOL schottky 1728 2016 R270
WINDOW 0 32 32 VTop 2
WINDOW 3 0 32 VBottom 2
SYMATTR InstName D36
SYMATTR Value BAT54
SYMATTR Description Diode
SYMATTR Type diode
SYMBOL pnp 1760 1520 M180
SYMATTR InstName Q89
SYMATTR Value 2N3906
SYMBOL schottky 1776 1552 R90
WINDOW 0 0 32 VBottom 2
WINDOW 3 32 32 VTop 2
SYMATTR InstName D37
SYMATTR Value BAT54
SYMATTR Description Diode
SYMATTR Type diode
SYMBOL res 1360 1584 R270
WINDOW 0 32 56 VTop 2
WINDOW 3 0 56 VBottom 2
SYMATTR InstName R193
SYMATTR Value {Rin}
SYMBOL res 1376 1984 R270
WINDOW 0 32 56 VTop 2
WINDOW 3 0 56 VBottom 2
SYMATTR InstName R194
SYMATTR Value {Rin}
SYMBOL res 1808 1632 R0
SYMATTR InstName R195
SYMATTR Value {Rout}
SYMBOL res 1808 1792 R0
SYMATTR InstName R196
SYMATTR Value {Rout}
SYMBOL npn 2368 2048 R0
SYMATTR InstName Q90
SYMATTR Value 2N3904
SYMBOL schottky 2336 2016 R270
WINDOW 0 32 32 VTop 2
WINDOW 3 0 32 VBottom 2
SYMATTR InstName D38
SYMATTR Value BAT54
SYMATTR Description Diode
SYMATTR Type diode
SYMBOL pnp 2368 1520 M180
SYMATTR InstName Q91
SYMATTR Value 2N3906
SYMBOL schottky 2384 1552 R90
WINDOW 0 0 32 VBottom 2
WINDOW 3 32 32 VTop 2
SYMATTR InstName D39
SYMATTR Value BAT54
SYMATTR Description Diode
SYMATTR Type diode
SYMBOL res 1968 1584 R270
WINDOW 0 32 56 VTop 2
WINDOW 3 0 56 VBottom 2
SYMATTR InstName R197
SYMATTR Value {Rin}
SYMBOL res 1984 1984 R270
WINDOW 0 32 56 VTop 2
WINDOW 3 0 56 VBottom 2
SYMATTR InstName R198
SYMATTR Value {Rin}
SYMBOL res 2416 1632 R0
SYMATTR InstName R199
SYMATTR Value {Rout}
SYMBOL res 2416 1792 R0
SYMATTR InstName R200
SYMATTR Value {Rout}
SYMBOL npn 3040 2048 R0
SYMATTR InstName Q92
SYMATTR Value 2N3904
SYMBOL schottky 3008 2016 R270
WINDOW 0 32 32 VTop 2
WINDOW 3 0 32 VBottom 2
SYMATTR InstName D40
SYMATTR Value BAT54
SYMATTR Description Diode
SYMATTR Type diode
SYMBOL pnp 3040 1520 M180
SYMATTR InstName Q93
SYMATTR Value 2N3906
SYMBOL schottky 3056 1552 R90
WINDOW 0 0 32 VBottom 2
WINDOW 3 32 32 VTop 2
SYMATTR InstName D41
SYMATTR Value BAT54
SYMATTR Description Diode
SYMATTR Type diode
SYMBOL res 2640 1584 R270
WINDOW 0 32 56 VTop 2
WINDOW 3 0 56 VBottom 2
SYMATTR InstName R201
SYMATTR Value {Rin}
SYMBOL res 2656 1984 R270
WINDOW 0 32 56 VTop 2
WINDOW 3 0 56 VBottom 2
SYMATTR InstName R202
SYMATTR Value {Rin}
SYMBOL res 3088 1632 R0
SYMATTR InstName R203
SYMATTR Value {Rout}
SYMBOL res 3088 1792 R0
SYMATTR InstName R204
SYMATTR Value {Rout}
SYMBOL npn 3696 2048 R0
SYMATTR InstName Q94
SYMATTR Value 2N3904
SYMBOL schottky 3664 2016 R270
WINDOW 0 32 32 VTop 2
WINDOW 3 0 32 VBottom 2
SYMATTR InstName D42
SYMATTR Value BAT54
SYMATTR Description Diode
SYMATTR Type diode
SYMBOL pnp 3696 1520 M180
SYMATTR InstName Q95
SYMATTR Value 2N3906
SYMBOL schottky 3712 1552 R90
WINDOW 0 0 32 VBottom 2
WINDOW 3 32 32 VTop 2
SYMATTR InstName D43
SYMATTR Value BAT54
SYMATTR Description Diode
SYMATTR Type diode
SYMBOL res 3296 1584 R270
WINDOW 0 32 56 VTop 2
WINDOW 3 0 56 VBottom 2
SYMATTR InstName R205
SYMATTR Value {Rin}
SYMBOL res 3312 1984 R270
WINDOW 0 32 56 VTop 2
WINDOW 3 0 56 VBottom 2
SYMATTR InstName R206
SYMATTR Value {Rin}
SYMBOL res 3744 1632 R0
SYMATTR InstName R207
SYMATTR Value {Rout}
SYMBOL res 3744 1792 R0
SYMATTR InstName R208
SYMATTR Value {Rout}
SYMBOL res 2784 3424 R270
WINDOW 0 32 56 VTop 2
WINDOW 3 0 56 VBottom 2
SYMATTR InstName R209
SYMATTR Value {Rb}
SYMBOL npn 3056 3360 R0
SYMATTR InstName Q96
SYMATTR Value 2N3904
SYMBOL schottky 3024 3328 R270
WINDOW 0 32 32 VTop 2
WINDOW 3 0 32 VBottom 2
SYMATTR InstName D44
SYMATTR Value BAT54
SYMATTR Description Diode
SYMATTR Type diode
SYMBOL pnp 3056 2832 M180
SYMATTR InstName Q97
SYMATTR Value 2N3906
SYMBOL schottky 3072 2864 R90
WINDOW 0 0 32 VBottom 2
WINDOW 3 32 32 VTop 2
SYMATTR InstName D45
SYMATTR Value BAT54
SYMATTR Description Diode
SYMATTR Type diode
SYMBOL res 2912 2768 R90
WINDOW 0 0 56 VBottom 2
WINDOW 3 32 56 VTop 2
SYMATTR InstName R210
SYMATTR Value {Rb}
SYMBOL res 2112 2624 R270
WINDOW 0 32 56 VTop 2
WINDOW 3 0 56 VBottom 2
SYMATTR InstName R211
SYMATTR Value 1m
SYMBOL npn 2544 2864 R0
SYMATTR InstName Q98
SYMATTR Value 2N3904
SYMBOL pnp 2336 2960 M180
SYMATTR InstName Q99
SYMATTR Value 2N3906
SYMBOL res 3104 2928 R0
SYMATTR InstName R212
SYMATTR Value 1
SYMBOL res 3104 3136 R0
SYMATTR InstName R213
SYMATTR Value 1
SYMBOL res 2384 2640 R0
SYMATTR InstName R218
SYMATTR Value 1k
SYMBOL res 2592 3456 R0
SYMATTR InstName R219
SYMATTR Value 1k
SYMBOL res 3104 2608 R0
SYMATTR InstName R220
SYMATTR Value 1
SYMBOL res 3104 3472 R0
SYMATTR InstName R221
SYMATTR Value 1
SYMBOL res 3840 3424 R270
WINDOW 0 32 56 VTop 2
WINDOW 3 0 56 VBottom 2
SYMATTR InstName R214
SYMATTR Value {Rb}
SYMBOL npn 4112 3360 R0
SYMATTR InstName Q100
SYMATTR Value 2N3904
SYMBOL schottky 4080 3328 R270
WINDOW 0 32 32 VTop 2
WINDOW 3 0 32 VBottom 2
SYMATTR InstName D46
SYMATTR Value BAT54
SYMATTR Description Diode
SYMATTR Type diode
SYMBOL pnp 4112 2832 M180
SYMATTR InstName Q101
SYMATTR Value 2N3906
SYMBOL schottky 4128 2864 R90
WINDOW 0 0 32 VBottom 2
WINDOW 3 32 32 VTop 2
SYMATTR InstName D47
SYMATTR Value BAT54
SYMATTR Description Diode
SYMATTR Type diode
SYMBOL res 3968 2768 R90
WINDOW 0 0 56 VBottom 2
WINDOW 3 32 56 VTop 2
SYMATTR InstName R215
SYMATTR Value {Rb}
SYMBOL npn 3600 2864 R0
SYMATTR InstName Q102
SYMATTR Value 2N3904
SYMBOL pnp 3392 2960 M180
SYMATTR InstName Q103
SYMATTR Value 2N3906
SYMBOL res 4160 2928 R0
SYMATTR InstName R216
SYMATTR Value 1
SYMBOL res 4160 3136 R0
SYMATTR InstName R217
SYMATTR Value 1
SYMBOL res 3440 2640 R0
SYMATTR InstName R222
SYMATTR Value 1k
SYMBOL res 3648 3456 R0
SYMATTR InstName R223
SYMATTR Value 1k
SYMBOL res 4160 2608 R0
SYMATTR InstName R224
SYMATTR Value 1
SYMBOL res 4160 3472 R0
SYMATTR InstName R225
SYMATTR Value 1
SYMBOL res 2800 4736 R270
WINDOW 0 32 56 VTop 2
WINDOW 3 0 56 VBottom 2
SYMATTR InstName R226
SYMATTR Value 500
SYMBOL npn 3072 4672 R0
SYMATTR InstName Q104
SYMATTR Value 2N3904
SYMBOL schottky 3040 4640 R270
WINDOW 0 32 32 VTop 2
WINDOW 3 0 32 VBottom 2
SYMATTR InstName D48
SYMATTR Value BAT54
SYMATTR Description Diode
SYMATTR Type diode
SYMBOL pnp 3072 4144 M180
SYMATTR InstName Q105
SYMATTR Value 2N3906
SYMBOL schottky 3088 4176 R90
WINDOW 0 0 32 VBottom 2
WINDOW 3 32 32 VTop 2
SYMATTR InstName D49
SYMATTR Value BAT54
SYMATTR Description Diode
SYMATTR Type diode
SYMBOL res 2928 4080 R90
WINDOW 0 0 56 VBottom 2
WINDOW 3 32 56 VTop 2
SYMATTR InstName R227
SYMATTR Value 500
SYMBOL res 2128 3936 R270
WINDOW 0 32 56 VTop 2
WINDOW 3 0 56 VBottom 2
SYMATTR InstName R228
SYMATTR Value 1m
SYMBOL npn 2352 4592 R0
SYMATTR InstName Q106
SYMATTR Value 2N3904
SYMBOL pnp 2640 4480 M180
SYMATTR InstName Q107
SYMATTR Value 2N3906
SYMBOL res 3120 4240 R0
SYMATTR InstName R229
SYMATTR Value 1
SYMBOL res 3120 4448 R0
SYMATTR InstName R230
SYMATTR Value 1
SYMBOL res 2400 3952 R0
SYMATTR InstName R231
SYMATTR Value 1
SYMBOL res 2400 4752 R0
SYMATTR InstName R232
SYMATTR Value 500
SYMBOL res 3120 3920 R0
SYMATTR InstName R233
SYMATTR Value 1m
SYMBOL res 3120 4784 R0
SYMATTR InstName R234
SYMATTR Value 1m
SYMBOL res 3856 4736 R270
WINDOW 0 32 56 VTop 2
WINDOW 3 0 56 VBottom 2
SYMATTR InstName R235
SYMATTR Value {Rb}
SYMBOL npn 4128 4672 R0
SYMATTR InstName Q108
SYMATTR Value 2N3904
SYMBOL schottky 4096 4640 R270
WINDOW 0 32 32 VTop 2
WINDOW 3 0 32 VBottom 2
SYMATTR InstName D50
SYMATTR Value BAT54
SYMATTR Description Diode
SYMATTR Type diode
SYMBOL pnp 4128 4144 M180
SYMATTR InstName Q109
SYMATTR Value 2N3906
SYMBOL schottky 4144 4176 R90
WINDOW 0 0 32 VBottom 2
WINDOW 3 32 32 VTop 2
SYMATTR InstName D51
SYMATTR Value BAT54
SYMATTR Description Diode
SYMATTR Type diode
SYMBOL res 3984 4080 R90
WINDOW 0 0 56 VBottom 2
WINDOW 3 32 56 VTop 2
SYMATTR InstName R236
SYMATTR Value {Rb}
SYMBOL npn 3616 4176 R0
SYMATTR InstName Q110
SYMATTR Value 2N3904
SYMBOL pnp 3408 4272 M180
SYMATTR InstName Q111
SYMATTR Value 2N3906
SYMBOL res 4176 4240 R0
SYMATTR InstName R237
SYMATTR Value 1
SYMBOL res 4176 4448 R0
SYMATTR InstName R238
SYMATTR Value 1
SYMBOL res 3456 3952 R0
SYMATTR InstName R239
SYMATTR Value 1k
SYMBOL res 3664 4768 R0
SYMATTR InstName R240
SYMATTR Value 1k
SYMBOL res 4176 3920 R0
SYMATTR InstName R241
SYMATTR Value 1
SYMBOL res 4176 4784 R0
SYMATTR InstName R242
SYMATTR Value 1
SYMBOL res 1968 2928 R270
WINDOW 0 32 56 VTop 2
WINDOW 3 0 56 VBottom 2
SYMATTR InstName R6
SYMATTR Value 1m
SYMBOL res 1744 4240 R270
WINDOW 0 32 56 VTop 2