Version 4
SHEET 1 14868 7364
WIRE -528 32 -528 0
WIRE -528 128 -528 112
WIRE -736 512 -736 464
WIRE -736 608 -736 576
WIRE -480 688 -480 608
WIRE -736 704 -736 672
WIRE -480 800 -480 768
WIRE -736 880 -736 784
WIRE -480 880 -480 864
WIRE -480 992 -480 944
WIRE -1808 1296 -1872 1296
WIRE -816 1296 -1728 1296
WIRE -112 1296 -816 1296
WIRE 496 1296 -112 1296
WIRE 1168 1296 496 1296
WIRE 1824 1296 1168 1296
WIRE 2432 1296 1824 1296
WIRE 3104 1296 2432 1296
WIRE 3760 1296 3104 1296
WIRE -816 1424 -816 1296
WIRE -112 1424 -112 1296
WIRE 496 1424 496 1296
WIRE 1168 1424 1168 1296
WIRE 1824 1424 1824 1296
WIRE 2432 1424 2432 1296
WIRE 3104 1424 3104 1296
WIRE 3760 1424 3760 1296
WIRE -880 1472 -992 1472
WIRE -288 1472 -432 1472
WIRE -176 1472 -288 1472
WIRE 320 1472 176 1472
WIRE 432 1472 320 1472
WIRE 992 1472 848 1472
WIRE 1104 1472 992 1472
WIRE 1648 1472 1504 1472
WIRE 1760 1472 1648 1472
WIRE 2256 1472 2112 1472
WIRE 2368 1472 2256 1472
WIRE 2928 1472 2784 1472
WIRE 3040 1472 2928 1472
WIRE 3584 1472 3440 1472
WIRE 3696 1472 3584 1472
WIRE -992 1568 -992 1472
WIRE -992 1568 -1072 1568
WIRE -928 1568 -992 1568
WIRE -816 1568 -816 1520
WIRE -816 1568 -864 1568
WIRE -288 1568 -288 1472
WIRE -224 1568 -288 1568
WIRE -112 1568 -112 1520
WIRE -112 1568 -160 1568
WIRE 48 1568 -112 1568
WIRE 176 1568 176 1472
WIRE 176 1568 128 1568
WIRE 320 1568 320 1472
WIRE 384 1568 320 1568
WIRE 496 1568 496 1520
WIRE 496 1568 448 1568
WIRE 720 1568 496 1568
WIRE 848 1568 848 1472
WIRE 848 1568 800 1568
WIRE 992 1568 992 1472
WIRE 1056 1568 992 1568
WIRE 1168 1568 1168 1520
WIRE 1168 1568 1120 1568
WIRE 1376 1568 1168 1568
WIRE 1504 1568 1504 1472
WIRE 1504 1568 1456 1568
WIRE 1648 1568 1648 1472
WIRE 1712 1568 1648 1568
WIRE 1824 1568 1824 1520
WIRE 1824 1568 1776 1568
WIRE 1984 1568 1824 1568
WIRE 2112 1568 2112 1472
WIRE 2112 1568 2064 1568
WIRE 2256 1568 2256 1472
WIRE 2320 1568 2256 1568
WIRE 2432 1568 2432 1520
WIRE 2432 1568 2384 1568
WIRE 2656 1568 2432 1568
WIRE 2784 1568 2784 1472
WIRE 2784 1568 2736 1568
WIRE 2928 1568 2928 1472
WIRE 2992 1568 2928 1568
WIRE 3104 1568 3104 1520
WIRE 3104 1568 3056 1568
WIRE 3312 1568 3104 1568
WIRE 3440 1568 3440 1472
WIRE 3440 1568 3392 1568
WIRE 3584 1568 3584 1472
WIRE 3648 1568 3584 1568
WIRE 3760 1568 3760 1520
WIRE 3760 1568 3712 1568
WIRE -816 1584 -816 1568
WIRE -560 1584 -816 1584
WIRE -432 1584 -432 1472
WIRE -432 1584 -480 1584
WIRE -1920 1600 -1952 1600
WIRE -1456 1600 -1920 1600
WIRE -1072 1600 -1072 1568
WIRE -816 1648 -816 1584
WIRE -112 1648 -112 1568
WIRE 496 1648 496 1568
WIRE 1168 1648 1168 1568
WIRE 1824 1648 1824 1568
WIRE 2432 1648 2432 1568
WIRE 3104 1648 3104 1568
WIRE 3760 1648 3760 1568
WIRE -816 1760 -816 1728
WIRE -720 1760 -816 1760
WIRE -112 1760 -112 1728
WIRE -16 1760 -112 1760
WIRE 496 1760 496 1728
WIRE 592 1760 496 1760
WIRE 1168 1760 1168 1728
WIRE 1264 1760 1168 1760
WIRE 1824 1760 1824 1728
WIRE 1920 1760 1824 1760
WIRE 2432 1760 2432 1728
WIRE 2528 1760 2432 1760
WIRE 3104 1760 3104 1728
WIRE 3200 1760 3104 1760
WIRE 3760 1760 3760 1728
WIRE 3840 1760 3760 1760
WIRE 3856 1760 3840 1760
WIRE -1072 1776 -1072 1680
WIRE -112 1808 -112 1760
WIRE 496 1808 496 1760
WIRE 1168 1808 1168 1760
WIRE 1824 1808 1824 1760
WIRE 2432 1808 2432 1760
WIRE 3104 1808 3104 1760
WIRE 3760 1808 3760 1760
WIRE -1136 1824 -1200 1824
WIRE -816 1824 -816 1760
WIRE -1200 1936 -1200 1824
WIRE -112 1968 -112 1888
WIRE 64 1968 -112 1968
WIRE 176 1968 144 1968
WIRE 496 1968 496 1888
WIRE 736 1968 496 1968
WIRE 848 1968 816 1968
WIRE 1168 1968 1168 1888
WIRE 1392 1968 1168 1968
WIRE 1504 1968 1472 1968
WIRE 1824 1968 1824 1888
WIRE 2000 1968 1824 1968
WIRE 2112 1968 2080 1968
WIRE 2432 1968 2432 1888
WIRE 2672 1968 2432 1968
WIRE 2784 1968 2752 1968
WIRE 3104 1968 3104 1888
WIRE 3328 1968 3104 1968
WIRE 3440 1968 3408 1968
WIRE -816 1984 -816 1904
WIRE -544 1984 -816 1984
WIRE -432 1984 -464 1984
WIRE -912 2000 -976 2000
WIRE -816 2000 -816 1984
WIRE -816 2000 -848 2000
WIRE -208 2000 -272 2000
WIRE -112 2000 -112 1968
WIRE -112 2000 -144 2000
WIRE 400 2000 336 2000
WIRE 496 2000 496 1968
WIRE 496 2000 464 2000
WIRE 1072 2000 1008 2000
WIRE 1168 2000 1168 1968
WIRE 1168 2000 1136 2000
WIRE 1728 2000 1664 2000
WIRE 1824 2000 1824 1968
WIRE 1824 2000 1792 2000
WIRE 2336 2000 2272 2000
WIRE 2432 2000 2432 1968
WIRE 2432 2000 2400 2000
WIRE 3008 2000 2944 2000
WIRE 3104 2000 3104 1968
WIRE 3104 2000 3072 2000
WIRE 3664 2000 3600 2000
WIRE 3760 2000 3760 1888
WIRE 3760 2000 3728 2000
WIRE -816 2048 -816 2000
WIRE -112 2048 -112 2000
WIRE 496 2048 496 2000
WIRE 1168 2048 1168 2000
WIRE 1824 2048 1824 2000
WIRE 2432 2048 2432 2000
WIRE 3104 2048 3104 2000
WIRE 3760 2048 3760 2000
WIRE -1456 2096 -1456 1600
WIRE -1200 2096 -1200 2016
WIRE -1200 2096 -1456 2096
WIRE -1168 2096 -1200 2096
WIRE -976 2096 -976 2000
WIRE -976 2096 -1088 2096
WIRE -880 2096 -976 2096
WIRE -432 2096 -432 1984
WIRE -272 2096 -272 2000
WIRE -272 2096 -432 2096
WIRE -176 2096 -272 2096
WIRE 176 2096 176 1968
WIRE 336 2096 336 2000
WIRE 336 2096 176 2096
WIRE 432 2096 336 2096
WIRE 848 2096 848 1968
WIRE 1008 2096 1008 2000
WIRE 1008 2096 848 2096
WIRE 1104 2096 1008 2096
WIRE 1504 2096 1504 1968
WIRE 1664 2096 1664 2000
WIRE 1664 2096 1504 2096
WIRE 1760 2096 1664 2096
WIRE 2112 2096 2112 1968
WIRE 2272 2096 2272 2000
WIRE 2272 2096 2112 2096
WIRE 2368 2096 2272 2096
WIRE 2784 2096 2784 1968
WIRE 2944 2096 2944 2000
WIRE 2944 2096 2784 2096
WIRE 3040 2096 2944 2096
WIRE 3440 2096 3440 1968
WIRE 3600 2096 3600 2000
WIRE 3600 2096 3440 2096
WIRE 3696 2096 3600 2096
WIRE -1072 2304 -1072 1872
WIRE -1072 2304 -1936 2304
WIRE -816 2304 -816 2144
WIRE -816 2304 -1072 2304
WIRE -112 2304 -112 2144
WIRE -112 2304 -816 2304
WIRE 496 2304 496 2144
WIRE 496 2304 -112 2304
WIRE 1168 2304 1168 2144
WIRE 1168 2304 496 2304
WIRE 1824 2304 1824 2144
WIRE 1824 2304 1168 2304
WIRE 2432 2304 2432 2144
WIRE 2432 2304 1824 2304
WIRE 3104 2304 3104 2144
WIRE 3104 2304 2432 2304
WIRE 3760 2304 3760 2144
WIRE 3760 2304 3104 2304
WIRE -1936 2352 -1936 2304
WIRE 3840 2448 3840 1760
WIRE 3840 2448 1696 2448
WIRE 1696 2912 1696 2448
WIRE 1984 2912 1696 2912
WIRE 1552 3472 1488 3472
WIRE 2448 3472 1632 3472
WIRE 1552 3584 1488 3584
WIRE 3008 3584 1632 3584
WIRE 2448 3648 2448 3472
WIRE 3008 3712 3008 3584
WIRE 2944 3760 2832 3760
WIRE 2448 3856 2448 3728
WIRE 2832 3856 2832 3760
WIRE 2832 3856 2448 3856
WIRE 2896 3856 2832 3856
WIRE 3008 3856 3008 3808
WIRE 3008 3856 2960 3856
WIRE 2448 4080 2448 3856
WIRE 3008 4096 3008 3856
WIRE 1264 4224 1264 1760
WIRE 1760 4224 1264 4224
WIRE 2448 4224 2448 4160
WIRE 2448 4224 1840 4224
WIRE 3008 4224 3008 4176
WIRE 3088 4224 3008 4224
WIRE 3136 4224 3088 4224
WIRE 2448 4272 2448 4224
WIRE 3008 4272 3008 4224
WIRE 2912 4448 2848 4448
WIRE 3008 4448 3008 4352
WIRE 3008 4448 2976 4448
WIRE 3008 4496 3008 4448
WIRE 2448 4544 2448 4352
WIRE 2848 4544 2848 4448
WIRE 2848 4544 2448 4544
WIRE 2944 4544 2848 4544
WIRE 2448 4624 2448 4544
WIRE 1552 4752 1488 4752
WIRE 3008 4752 3008 4592
WIRE 3008 4752 1632 4752
WIRE 1488 4800 1488 4752
WIRE 1552 4880 1488 4880
WIRE 2448 4880 2448 4704
WIRE 2448 4880 1632 4880
WIRE -976 5152 -1040 5152
WIRE -80 5152 -896 5152
WIRE 864 5152 -80 5152
WIRE 1808 5152 864 5152
WIRE 2752 5152 1808 5152
WIRE 3696 5152 2752 5152
WIRE 4640 5152 3696 5152
WIRE 5584 5152 4640 5152
WIRE 6528 5152 5584 5152
WIRE -976 5264 -1040 5264
WIRE 480 5264 -896 5264
WIRE 1424 5264 480 5264
WIRE 2368 5264 1424 5264
WIRE 3312 5264 2368 5264
WIRE 4256 5264 3312 5264
WIRE 5200 5264 4256 5264
WIRE 6144 5264 5200 5264
WIRE 7088 5264 6144 5264
WIRE -80 5328 -80 5152
WIRE 864 5328 864 5152
WIRE 1808 5328 1808 5152
WIRE 2752 5328 2752 5152
WIRE 3696 5328 3696 5152
WIRE 4640 5328 4640 5152
WIRE 5584 5328 5584 5152
WIRE 6528 5328 6528 5152
WIRE 480 5392 480 5264
WIRE 1424 5392 1424 5264
WIRE 2368 5392 2368 5264
WIRE 3312 5392 3312 5264
WIRE 4256 5392 4256 5264
WIRE 5200 5392 5200 5264
WIRE 6144 5392 6144 5264
WIRE 7088 5392 7088 5264
WIRE 416 5440 304 5440
WIRE 1360 5440 1248 5440
WIRE 2304 5440 2192 5440
WIRE 3248 5440 3136 5440
WIRE 4192 5440 4080 5440
WIRE 5136 5440 5024 5440
WIRE 6080 5440 5968 5440
WIRE 7024 5440 6912 5440
WIRE -80 5536 -80 5408
WIRE 304 5536 304 5440
WIRE 304 5536 -80 5536
WIRE 368 5536 304 5536
WIRE 480 5536 480 5488
WIRE 480 5536 432 5536
WIRE 864 5536 864 5408
WIRE 1248 5536 1248 5440
WIRE 1248 5536 864 5536
WIRE 1312 5536 1248 5536
WIRE 1424 5536 1424 5488
WIRE 1424 5536 1376 5536
WIRE 1808 5536 1808 5408
WIRE 2192 5536 2192 5440
WIRE 2192 5536 1808 5536
WIRE 2256 5536 2192 5536
WIRE 2368 5536 2368 5488
WIRE 2368 5536 2320 5536
WIRE 2752 5536 2752 5408
WIRE 3136 5536 3136 5440
WIRE 3136 5536 2752 5536
WIRE 3200 5536 3136 5536
WIRE 3312 5536 3312 5488
WIRE 3312 5536 3264 5536
WIRE 3696 5536 3696 5408
WIRE 4080 5536 4080 5440
WIRE 4080 5536 3696 5536
WIRE 4144 5536 4080 5536
WIRE 4256 5536 4256 5488
WIRE 4256 5536 4208 5536
WIRE 4640 5536 4640 5408
WIRE 5024 5536 5024 5440
WIRE 5024 5536 4640 5536
WIRE 5088 5536 5024 5536
WIRE 5200 5536 5200 5488
WIRE 5200 5536 5152 5536
WIRE 5584 5536 5584 5408
WIRE 5968 5536 5968 5440
WIRE 5968 5536 5584 5536
WIRE 6032 5536 5968 5536
WIRE 6144 5536 6144 5488
WIRE 6144 5536 6096 5536
WIRE 6528 5536 6528 5408
WIRE 6912 5536 6912 5440
WIRE 6912 5536 6528 5536
WIRE 6976 5536 6912 5536
WIRE 7088 5536 7088 5488
WIRE 7088 5536 7040 5536
WIRE -80 5760 -80 5536
WIRE 864 5760 864 5536
WIRE 1808 5760 1808 5536
WIRE 2752 5760 2752 5536
WIRE 3696 5760 3696 5536
WIRE 4640 5760 4640 5536
WIRE 5584 5760 5584 5536
WIRE 6528 5760 6528 5536
WIRE 480 5776 480 5536
WIRE 1424 5776 1424 5536
WIRE 2368 5776 2368 5536
WIRE 3312 5776 3312 5536
WIRE 4256 5776 4256 5536
WIRE 5200 5776 5200 5536
WIRE 6144 5776 6144 5536
WIRE 7088 5776 7088 5536
WIRE -544 5904 -576 5904
WIRE -336 5904 -544 5904
WIRE -80 5904 -80 5840
WIRE -80 5904 -256 5904
WIRE 480 5904 480 5856
WIRE 560 5904 480 5904
WIRE 608 5904 560 5904
WIRE 864 5904 864 5840
WIRE 864 5904 688 5904
WIRE 1424 5904 1424 5856
WIRE 1504 5904 1424 5904
WIRE 1552 5904 1504 5904
WIRE 1808 5904 1808 5840
WIRE 1808 5904 1632 5904
WIRE 2368 5904 2368 5856
WIRE 2448 5904 2368 5904
WIRE 2496 5904 2448 5904
WIRE 2752 5904 2752 5840
WIRE 2752 5904 2576 5904
WIRE 3312 5904 3312 5856
WIRE 3392 5904 3312 5904
WIRE 3440 5904 3392 5904
WIRE 3696 5904 3696 5840
WIRE 3696 5904 3520 5904
WIRE 4256 5904 4256 5856
WIRE 4336 5904 4256 5904
WIRE 4384 5904 4336 5904
WIRE 4640 5904 4640 5840
WIRE 4640 5904 4464 5904
WIRE 5200 5904 5200 5856
WIRE 5280 5904 5200 5904
WIRE 5328 5904 5280 5904
WIRE 5584 5904 5584 5840
WIRE 5584 5904 5408 5904
WIRE 6144 5904 6144 5856
WIRE 6224 5904 6144 5904
WIRE 6272 5904 6224 5904
WIRE 6528 5904 6528 5840
WIRE 6528 5904 6352 5904
WIRE 7088 5904 7088 5856
WIRE 7168 5904 7088 5904
WIRE 7216 5904 7168 5904
WIRE -80 5952 -80 5904
WIRE 480 5952 480 5904
WIRE 864 5952 864 5904
WIRE 1424 5952 1424 5904
WIRE 1808 5952 1808 5904
WIRE 2368 5952 2368 5904
WIRE 2752 5952 2752 5904
WIRE 3312 5952 3312 5904
WIRE 3696 5952 3696 5904
WIRE 4256 5952 4256 5904
WIRE 4640 5952 4640 5904
WIRE 5200 5952 5200 5904
WIRE 5584 5952 5584 5904
WIRE 6144 5952 6144 5904
WIRE 6528 5952 6528 5904
WIRE 7088 5952 7088 5904
WIRE 384 6128 320 6128
WIRE 480 6128 480 6032
WIRE 480 6128 448 6128
WIRE 1328 6128 1264 6128
WIRE 1424 6128 1424 6032
WIRE 1424 6128 1392 6128
WIRE 2272 6128 2208 6128
WIRE 2368 6128 2368 6032
WIRE 2368 6128 2336 6128
WIRE 3216 6128 3152 6128
WIRE 3312 6128 3312 6032
WIRE 3312 6128 3280 6128
WIRE 4160 6128 4096 6128
WIRE 4256 6128 4256 6032
WIRE 4256 6128 4224 6128
WIRE 5104 6128 5040 6128
WIRE 5200 6128 5200 6032
WIRE 5200 6128 5168 6128
WIRE 6048 6128 5984 6128
WIRE 6144 6128 6144 6032
WIRE 6144 6128 6112 6128
WIRE 6992 6128 6928 6128
WIRE 7088 6128 7088 6032
WIRE 7088 6128 7056 6128
WIRE 480 6176 480 6128
WIRE 1424 6176 1424 6128
WIRE 2368 6176 2368 6128
WIRE 3312 6176 3312 6128
WIRE 4256 6176 4256 6128
WIRE 5200 6176 5200 6128
WIRE 6144 6176 6144 6128
WIRE 7088 6176 7088 6128
WIRE -80 6224 -80 6032
WIRE 320 6224 320 6128
WIRE 320 6224 -80 6224
WIRE 416 6224 320 6224
WIRE 864 6224 864 6032
WIRE 1264 6224 1264 6128
WIRE 1264 6224 864 6224
WIRE 1360 6224 1264 6224
WIRE 1808 6224 1808 6032
WIRE 2208 6224 2208 6128
WIRE 2208 6224 1808 6224
WIRE 2304 6224 2208 6224
WIRE 2752 6224 2752 6032
WIRE 3152 6224 3152 6128
WIRE 3152 6224 2752 6224
WIRE 3248 6224 3152 6224
WIRE 3696 6224 3696 6032
WIRE 4096 6224 4096 6128
WIRE 4096 6224 3696 6224
WIRE 4192 6224 4096 6224
WIRE 4640 6224 4640 6032
WIRE 5040 6224 5040 6128
WIRE 5040 6224 4640 6224
WIRE 5136 6224 5040 6224
WIRE 5584 6224 5584 6032
WIRE 5984 6224 5984 6128
WIRE 5984 6224 5584 6224
WIRE 6080 6224 5984 6224
WIRE 6528 6224 6528 6032
WIRE 6928 6224 6928 6128
WIRE 6928 6224 6528 6224
WIRE 7024 6224 6928 6224
WIRE -80 6304 -80 6224
WIRE 864 6304 864 6224
WIRE 1808 6304 1808 6224
WIRE 2752 6304 2752 6224
WIRE 3696 6304 3696 6224
WIRE 4640 6304 4640 6224
WIRE 5584 6304 5584 6224
WIRE 6528 6304 6528 6224
WIRE -976 6432 -1040 6432
WIRE 480 6432 480 6272
WIRE 480 6432 -896 6432
WIRE 1424 6432 1424 6272
WIRE 1424 6432 480 6432
WIRE 2368 6432 2368 6272
WIRE 2368 6432 1424 6432
WIRE 3312 6432 3312 6272
WIRE 3312 6432 2368 6432
WIRE 4256 6432 4256 6272
WIRE 4256 6432 3312 6432
WIRE 5200 6432 5200 6272
WIRE 5200 6432 4256 6432
WIRE 6144 6432 6144 6272
WIRE 6144 6432 5200 6432
WIRE 7088 6432 7088 6272
WIRE 7088 6432 6144 6432
WIRE -1040 6480 -1040 6432
WIRE -976 6560 -1040 6560
WIRE -80 6560 -80 6384
WIRE -80 6560 -896 6560
WIRE 864 6560 864 6384
WIRE 864 6560 -80 6560
WIRE 1808 6560 1808 6384
WIRE 1808 6560 864 6560
WIRE 2752 6560 2752 6384
WIRE 2752 6560 1808 6560
WIRE 3696 6560 3696 6384
WIRE 3696 6560 2752 6560
WIRE 4640 6560 4640 6384
WIRE 4640 6560 3696 6560
WIRE 5584 6560 5584 6384
WIRE 5584 6560 4640 6560
WIRE 6528 6560 6528 6384
WIRE 6528 6560 5584 6560
FLAG -528 128 0
FLAG 352 0 BIT0
FLAG -528 0 VCC
FLAG 272 0 0
FLAG 352 160 BIT1
FLAG 272 160 0
FLAG 352 304 BIT2
FLAG 272 304 0
FLAG 352 448 BIT3
FLAG 272 448 0
FLAG 352 592 BIT4
FLAG 272 592 0
FLAG 1312 80 BIT0
FLAG 1312 160 0
FLAG 1472 80 BIT1
FLAG 1472 160 0
FLAG 1632 80 BIT2
FLAG 1632 160 0
FLAG 1792 80 BIT3
FLAG 1792 160 0
FLAG 1952 80 BIT4
FLAG 1952 160 0
FLAG -1936 2352 0
FLAG -720 1760 A2
FLAG -1920 1600 BIT0
FLAG -1872 1296 VCC
FLAG -16 1760 B2
FLAG 592 1760 C2
FLAG 1264 1760 D2
FLAG 1920 1760 E2
FLAG 2528 1760 F2
FLAG 3200 1760 G2
FLAG 3856 1760 H2
FLAG -1040 6480 0
FLAG 560 5904 INV1
FLAG -544 5904 BIT0
FLAG -1040 5264 VCC
FLAG -480 608 0
FLAG -736 880 VCC
FLAG -736 464 Vh
FLAG -480 992 Vl
FLAG -1040 5152 Vh
FLAG -1040 6560 Vl
FLAG 1504 5904 INV2
FLAG 2448 5904 INV3
FLAG 3392 5904 INV4
FLAG 4336 5904 INV5
FLAG 5280 5904 INV6
FLAG 6224 5904 INV7
FLAG 7168 5904 INV8
FLAG 1488 4800 0
FLAG 3088 4224 Cell1
FLAG 1488 3584 VCC
FLAG 1488 3472 Vh
FLAG 1488 4880 Vl
SYMBOL voltage -528 16 R0
WINDOW 123 0 0 Left 0
WINDOW 39 0 0 Left 0
SYMATTR InstName VCC
SYMATTR Value {VCC}
SYMBOL voltage 368 0 R90
WINDOW 123 -77 30 VRight 2
WINDOW 39 0 0 Left 0
WINDOW 0 -51 28 VRight 2
WINDOW 3 46 -379 VRight 2
SYMATTR Value2 AC 5
SYMATTR InstName V_BIT0
SYMATTR Value PULSE(0 {VCC} 0 {rise} {rise} {1/freq/2-rise} {1/freq} {16*reps})
SYMBOL voltage 368 160 R90
WINDOW 123 -77 30 VRight 2
WINDOW 39 0 0 Left 0
WINDOW 0 -51 28 VRight 2
WINDOW 3 46 -379 VRight 2
SYMATTR InstName V_BIT1
SYMATTR Value PULSE(0 {VCC} 0 {rise} {rise} {2*1/freq/2-rise} {2*1/freq} {8*reps})
SYMBOL voltage 368 304 R90
WINDOW 123 -77 30 VRight 2
WINDOW 39 0 0 Left 0
WINDOW 0 -51 28 VRight 2
WINDOW 3 46 -379 VRight 2
SYMATTR InstName V_BIT2
SYMATTR Value PULSE(0 {VCC} 0 {rise} {rise} {4*1/freq/2-rise} {4*1/freq} {4*reps})
SYMBOL voltage 368 448 R90
WINDOW 123 -77 30 VRight 2
WINDOW 39 0 0 Left 0
WINDOW 0 -51 28 VRight 2
WINDOW 3 46 -379 VRight 2
SYMATTR InstName V_BIT3
SYMATTR Value PULSE(0 {VCC} 0 {rise} {rise} {8*1/freq/2-rise} {8*1/freq} {2*reps})
SYMBOL voltage 368 592 R90
WINDOW 123 -77 30 VRight 2
WINDOW 39 0 0 Left 0
WINDOW 0 -51 28 VRight 2
WINDOW 3 46 -379 VRight 2
SYMATTR InstName V_BIT4
SYMATTR Value PULSE(0 {VCC} 0 {rise} {rise} {16*1/freq/2-rise} {16*1/freq} {1*reps})
SYMBOL res 1296 64 R0
SYMATTR InstName R1
SYMATTR Value 10Mega
SYMBOL res 1456 64 R0
SYMATTR InstName R2
SYMATTR Value 10Mega
SYMBOL res 1616 64 R0
SYMATTR InstName R3
SYMATTR Value 10Mega
SYMBOL res 1776 64 R0
SYMATTR InstName R4
SYMATTR Value 10Mega
SYMBOL res 1936 64 R0
SYMATTR InstName R5
SYMATTR Value 10Mega
SYMBOL npn -880 2048 R0
SYMATTR InstName Q75
SYMATTR Value 2N3904
SYMBOL schottky -912 2016 R270
WINDOW 0 32 32 VTop 2
WINDOW 3 0 32 VBottom 2
SYMATTR InstName D28
SYMATTR Value BAT54
SYMATTR Description Diode
SYMATTR Type diode
SYMBOL res -1824 1312 R270
WINDOW 0 32 56 VTop 2
WINDOW 3 0 56 VBottom 2
SYMATTR InstName R132
SYMATTR Value 1m
SYMBOL res -1184 2112 R270
WINDOW 0 32 56 VTop 2
WINDOW 3 0 56 VBottom 2
SYMATTR InstName R147
SYMATTR Value 500
SYMBOL pnp -880 1520 M180
SYMATTR InstName Q82
SYMATTR Value 2N3906
SYMBOL schottky -864 1552 R90
WINDOW 0 0 32 VBottom 2
WINDOW 3 32 32 VTop 2
SYMATTR InstName D29
SYMATTR Value BAT54
SYMATTR Description Diode
SYMATTR Type diode
SYMBOL pnp -1136 1872 M180
SYMATTR InstName Q83
SYMATTR Value 2N3906
SYMBOL res -1088 1584 R0
SYMATTR InstName R151
SYMATTR Value 500
SYMBOL res -1216 1920 R0
SYMATTR InstName R150
SYMATTR Value 500
SYMBOL npn -176 2048 R0
SYMATTR InstName Q80
SYMATTR Value 2N3904
SYMBOL schottky -208 2016 R270
WINDOW 0 32 32 VTop 2
WINDOW 3 0 32 VBottom 2
SYMATTR InstName D30
SYMATTR Value BAT54
SYMATTR Description Diode
SYMATTR Type diode
SYMBOL pnp -176 1520 M180
SYMATTR InstName Q81
SYMATTR Value 2N3906
SYMBOL schottky -160 1552 R90
WINDOW 0 0 32 VBottom 2
WINDOW 3 32 32 VTop 2
SYMATTR InstName D31
SYMATTR Value BAT54
SYMATTR Description Diode
SYMATTR Type diode
SYMBOL res -832 1632 R0
SYMATTR InstName R152
SYMATTR Value {Rout}
SYMBOL res -832 1808 R0
SYMATTR InstName R153
SYMATTR Value {Rout}
SYMBOL res -576 1600 R270
WINDOW 0 32 56 VTop 2
WINDOW 3 0 56 VBottom 2
SYMATTR InstName R166
SYMATTR Value {Rin}
SYMBOL res -560 2000 R270
WINDOW 0 32 56 VTop 2
WINDOW 3 0 56 VBottom 2
SYMATTR InstName R167
SYMATTR Value {Rin}
SYMBOL res -128 1632 R0
SYMATTR InstName R176
SYMATTR Value {Rout}
SYMBOL res -128 1792 R0
SYMATTR InstName R177
SYMATTR Value {Rout}
SYMBOL npn 432 2048 R0
SYMATTR InstName Q84
SYMATTR Value 2N3904
SYMBOL schottky 400 2016 R270
WINDOW 0 32 32 VTop 2
WINDOW 3 0 32 VBottom 2
SYMATTR InstName D32
SYMATTR Value BAT54
SYMATTR Description Diode
SYMATTR Type diode
SYMBOL pnp 432 1520 M180
SYMATTR InstName Q85
SYMATTR Value 2N3906
SYMBOL schottky 448 1552 R90
WINDOW 0 0 32 VBottom 2
WINDOW 3 32 32 VTop 2
SYMATTR InstName D33
SYMATTR Value BAT54
SYMATTR Description Diode
SYMATTR Type diode
SYMBOL res 32 1584 R270
WINDOW 0 32 56 VTop 2
WINDOW 3 0 56 VBottom 2
SYMATTR InstName R178
SYMATTR Value {Rin}
SYMBOL res 48 1984 R270
WINDOW 0 32 56 VTop 2
WINDOW 3 0 56 VBottom 2
SYMATTR InstName R179
SYMATTR Value {Rin}
SYMBOL res 480 1632 R0
SYMATTR InstName R180
SYMATTR Value {Rout}
SYMBOL res 480 1792 R0
SYMATTR InstName R181
SYMATTR Value {Rout}
SYMBOL npn 1104 2048 R0
SYMATTR InstName Q86
SYMATTR Value 2N3904
SYMBOL schottky 1072 2016 R270
WINDOW 0 32 32 VTop 2
WINDOW 3 0 32 VBottom 2
SYMATTR InstName D34
SYMATTR Value BAT54
SYMATTR Description Diode
SYMATTR Type diode
SYMBOL pnp 1104 1520 M180
SYMATTR InstName Q87
SYMATTR Value 2N3906
SYMBOL schottky 1120 1552 R90
WINDOW 0 0 32 VBottom 2
WINDOW 3 32 32 VTop 2
SYMATTR InstName D35
SYMATTR Value BAT54
SYMATTR Description Diode
SYMATTR Type diode
SYMBOL res 704 1584 R270
WINDOW 0 32 56 VTop 2
WINDOW 3 0 56 VBottom 2
SYMATTR InstName R182
SYMATTR Value {Rin}
SYMBOL res 720 1984 R270
WINDOW 0 32 56 VTop 2
WINDOW 3 0 56 VBottom 2
SYMATTR InstName R183
SYMATTR Value {Rin}
SYMBOL res 1152 1632 R0
SYMATTR InstName R184
SYMATTR Value {Rout}
SYMBOL res 1152 1792 R0
SYMATTR InstName R192
SYMATTR Value {Rout}
SYMBOL npn 1760 2048 R0
SYMATTR InstName Q88
SYMATTR Value 2N3904
SYMBOL schottky 1728 2016 R270
WINDOW 0 32 32 VTop 2
WINDOW 3 0 32 VBottom 2
SYMATTR InstName D36
SYMATTR Value BAT54
SYMATTR Description Diode
SYMATTR Type diode
SYMBOL pnp 1760 1520 M180
SYMATTR InstName Q89
SYMATTR Value 2N3906
SYMBOL schottky 1776 1552 R90
WINDOW 0 0 32 VBottom 2
WINDOW 3 32 32 VTop 2
SYMATTR InstName D37
SYMATTR Value BAT54
SYMATTR Description Diode
SYMATTR Type diode
SYMBOL res 1360 1584 R270
WINDOW 0 32 56 VTop 2
WINDOW 3 0 56 VBottom 2
SYMATTR InstName R193
SYMATTR Value {Rin}
SYMBOL res 1376 1984 R270
WINDOW 0 32 56 VTop 2
WINDOW 3 0 56 VBottom 2
SYMATTR InstName R194
SYMATTR Value {Rin}
SYMBOL res 1808 1632 R0
SYMATTR InstName R195
SYMATTR Value {Rout}
SYMBOL res 1808 1792 R0
SYMATTR InstName R196
SYMATTR Value {Rout}
SYMBOL npn 2368 2048 R0
SYMATTR InstName Q90
SYMATTR Value 2N3904
SYMBOL schottky 2336 2016 R270
WINDOW 0 32 32 VTop 2
WINDOW 3 0 32 VBottom 2
SYMATTR InstName D38
SYMATTR Value BAT54
SYMATTR Description Diode
SYMATTR Type diode
SYMBOL pnp 2368 1520 M180
SYMATTR InstName Q91
SYMATTR Value 2N3906
SYMBOL schottky 2384 1552 R90
WINDOW 0 0 32 VBottom 2
WINDOW 3 32 32 VTop 2
SYMATTR InstName D39
SYMATTR Value BAT54
SYMATTR Description Diode
SYMATTR Type diode
SYMBOL res 1968 1584 R270
WINDOW 0 32 56 VTop 2
WINDOW 3 0 56 VBottom 2
SYMATTR InstName R197
SYMATTR Value {Rin}
SYMBOL res 1984 1984 R270
WINDOW 0 32 56 VTop 2
WINDOW 3 0 56 VBottom 2
SYMATTR InstName R198
SYMATTR Value {Rin}
SYMBOL res 2416 1632 R0
SYMATTR InstName R199
SYMATTR Value {Rout}
SYMBOL res 2416 1792 R0
SYMATTR InstName R200
SYMATTR Value {Rout}
SYMBOL npn 3040 2048 R0
SYMATTR InstName Q92
SYMATTR Value 2N3904
SYMBOL schottky 3008 2016 R270
WINDOW 0 32 32 VTop 2
WINDOW 3 0 32 VBottom 2
SYMATTR InstName D40
SYMATTR Value BAT54
SYMATTR Description Diode
SYMATTR Type diode
SYMBOL pnp 3040 1520 M180
SYMATTR InstName Q93
SYMATTR Value 2N3906
SYMBOL schottky 3056 1552 R90
WINDOW 0 0 32 VBottom 2
WINDOW 3 32 32 VTop 2
SYMATTR InstName D41
SYMATTR Value BAT54
SYMATTR Description Diode
SYMATTR Type diode
SYMBOL res 2640 1584 R270
WINDOW 0 32 56 VTop 2
WINDOW 3 0 56 VBottom 2
SYMATTR InstName R201
SYMATTR Value {Rin}
SYMBOL res 2656 1984 R270
WINDOW 0 32 56 VTop 2
WINDOW 3 0 56 VBottom 2
SYMATTR InstName R202
SYMATTR Value {Rin}
SYMBOL res 3088 1632 R0
SYMATTR InstName R203
SYMATTR Value {Rout}
SYMBOL res 3088 1792 R0
SYMATTR InstName R204
SYMATTR Value {Rout}
SYMBOL npn 3696 2048 R0
SYMATTR InstName Q94
SYMATTR Value 2N3904
SYMBOL schottky 3664 2016 R270
WINDOW 0 32 32 VTop 2
WINDOW 3 0 32 VBottom 2
SYMATTR InstName D42
SYMATTR Value BAT54
SYMATTR Description Diode
SYMATTR Type diode
SYMBOL pnp 3696 1520 M180
SYMATTR InstName Q95
SYMATTR Value 2N3906
SYMBOL schottky 3712 1552 R90
WINDOW 0 0 32 VBottom 2
WINDOW 3 32 32 VTop 2
SYMATTR InstName D43
SYMATTR Value BAT54
SYMATTR Description Diode
SYMATTR Type diode
SYMBOL res 3296 1584 R270
WINDOW 0 32 56 VTop 2
WINDOW 3 0 56 VBottom 2
SYMATTR InstName R205
SYMATTR Value {Rin}
SYMBOL res 3312 1984 R270
WINDOW 0 32 56 VTop 2
WINDOW 3 0 56 VBottom 2
SYMATTR InstName R206
SYMATTR Value {Rin}
SYMBOL res 3744 1632 R0
SYMATTR InstName R207
SYMATTR Value {Rout}
SYMBOL res 3744 1792 R0
SYMATTR InstName R208
SYMATTR Value {Rout}
SYMBOL res 1744 4240 R270
WINDOW 0 32 56 VTop 2
WINDOW 3 0 56 VBottom 2
SYMATTR InstName R7
SYMATTR Value 1m
SYMBOL npn 416 6176 R0
SYMATTR InstName Q1
SYMATTR Value 2N3904
SYMBOL schottky 384 6144 R270
WINDOW 0 32 32 VTop 2
WINDOW 3 0 32 VBottom 2
SYMATTR InstName D1
SYMATTR Value BAT54
SYMATTR Description Diode
SYMATTR Type diode
SYMBOL res -992 5280 R270
WINDOW 0 32 56 VTop 2
WINDOW 3 0 56 VBottom 2
SYMATTR InstName R12
SYMATTR Value 1m
SYMBOL pnp 416 5488 M180
SYMATTR InstName Q2
SYMATTR Value 2N3906
SYMBOL schottky 432 5520 R90
WINDOW 0 0 32 VBottom 2
WINDOW 3 32 32 VTop 2
SYMATTR InstName D2
SYMATTR Value BAT54
SYMATTR Description Diode
SYMATTR Type diode
SYMBOL res -64 5856 R180
WINDOW 0 36 76 Left 2
WINDOW 3 36 40 Left 2
SYMATTR InstName R15
SYMATTR Value {Rinv_in}
SYMBOL res 464 5760 R0
SYMATTR InstName R16
SYMATTR Value 1
SYMBOL res 464 5936 R0
SYMATTR InstName R17
SYMATTR Value 1
SYMBOL res -96 5312 R0
SYMATTR InstName R18
SYMATTR Value {Rinv_in}
SYMBOL res -96 6288 R0
SYMATTR InstName R19
SYMATTR Value {Rinv_in}
SYMBOL res -240 5888 R90
WINDOW 0 0 56 VBottom 2
WINDOW 3 32 56 VTop 2
SYMATTR InstName R20
SYMATTR Value 1m
SYMBOL res -64 6048 R180
WINDOW 0 36 76 Left 2
WINDOW 3 36 40 Left 2
SYMATTR InstName R14
SYMATTR Value {Rinv_in}
SYMBOL voltage -736 688 R0
WINDOW 123 0 0 Left 0
WINDOW 39 0 0 Left 0
SYMATTR InstName VCC1
SYMATTR Value {VCC/2}
SYMBOL voltage -480 672 R0
WINDOW 123 0 0 Left 0
WINDOW 39 0 0 Left 0
SYMATTR InstName VCC2
SYMATTR Value {VCC/2}
SYMBOL diode -464 864 R180
WINDOW 0 24 64 Left 2
WINDOW 3 24 0 Left 2
SYMATTR InstName D3
SYMATTR Value 1N4148
SYMBOL diode -464 944 R180
WINDOW 0 24 64 Left 2
WINDOW 3 24 0 Left 2
SYMATTR InstName D4
SYMATTR Value 1N4148
SYMBOL diode -720 672 R180
WINDOW 0 24 64 Left 2
WINDOW 3 24 0 Left 2
SYMATTR InstName D5
SYMATTR Value 1N4148
SYMBOL diode -720 576 R180
WINDOW 0 24 64 Left 2
WINDOW 3 24 0 Left 2
SYMATTR InstName D6
SYMATTR Value 1N4148
SYMBOL res -992 5168 R270
WINDOW 0 32 56 VTop 2
WINDOW 3 0 56 VBottom 2
SYMATTR InstName R6
SYMATTR Value 1m
SYMBOL res -992 6448 R270
WINDOW 0 32 56 VTop 2
WINDOW 3 0 56 VBottom 2
SYMATTR InstName R8
SYMATTR Value 1m
SYMBOL res -992 6576 R270
WINDOW 0 32 56 VTop 2
WINDOW 3 0 56 VBottom 2
SYMATTR InstName R9
SYMATTR Value 1m
SYMBOL npn 1360 6176 R0
SYMATTR InstName Q3
SYMATTR Value 2N3904
SYMBOL schottky 1328 6144 R270
WINDOW 0 32 32 VTop 2
WINDOW 3 0 32 VBottom 2
SYMATTR InstName D7
SYMATTR Value BAT54
SYMATTR Description Diode
SYMATTR Type diode
SYMBOL pnp 1360 5488 M180
SYMATTR InstName Q4
SYMATTR Value 2N3906
SYMBOL schottky 1376 5520 R90
WINDOW 0 0 32 VBottom 2
WINDOW 3 32 32 VTop 2
SYMATTR InstName D8
SYMATTR Value BAT54
SYMATTR Description Diode
SYMATTR Type diode
SYMBOL res 880 5856 R180
WINDOW 0 36 76 Left 2
WINDOW 3 36 40 Left 2
SYMATTR InstName R10
SYMATTR Value {Rinv_in}
SYMBOL res 1408 5760 R0
SYMATTR InstName R11
SYMATTR Value 1
SYMBOL res 1408 5936 R0
SYMATTR InstName R13
SYMATTR Value 1
SYMBOL res 848 5312 R0
SYMATTR InstName R21
SYMATTR Value {Rinv_in}
SYMBOL res 848 6288 R0
SYMATTR InstName R22
SYMATTR Value {Rinv_in}
SYMBOL res 704 5888 R90
WINDOW 0 0 56 VBottom 2
WINDOW 3 32 56 VTop 2
SYMATTR InstName R23
SYMATTR Value 1m
SYMBOL res 880 6048 R180
WINDOW 0 36 76 Left 2
WINDOW 3 36 40 Left 2
SYMATTR InstName R24
SYMATTR Value {Rinv_in}
SYMBOL npn 2304 6176 R0
SYMATTR InstName Q5
SYMATTR Value 2N3904
SYMBOL schottky 2272 6144 R270
WINDOW 0 32 32 VTop 2
WINDOW 3 0 32 VBottom 2
SYMATTR InstName D9
SYMATTR Value BAT54
SYMATTR Description Diode
SYMATTR Type diode
SYMBOL pnp 2304 5488 M180
SYMATTR InstName Q6
SYMATTR Value 2N3906
SYMBOL schottky 2320 5520 R90
WINDOW 0 0 32 VBottom 2
WINDOW 3 32 32 VTop 2
SYMATTR InstName D10
SYMATTR Value BAT54
SYMATTR Description Diode
SYMATTR Type diode
SYMBOL res 1824 5856 R180
WINDOW 0 36 76 Left 2
WINDOW 3 36 40 Left 2
SYMATTR InstName R25
SYMATTR Value {Rinv_in}
SYMBOL res 2352 5760 R0
SYMATTR InstName R26
SYMATTR Value 1
SYMBOL res 2352 5936 R0
SYMATTR InstName R27
SYMATTR Value 1
SYMBOL res 1792 5312 R0
SYMATTR InstName R28
SYMATTR Value {Rinv_in}
SYMBOL res 1792 6288 R0
SYMATTR InstName R29
SYMATTR Value {Rinv_in}
SYMBOL res 1648 5888 R90
WINDOW 0 0 56 VBottom 2
WINDOW 3 32 56 VTop 2
SYMATTR InstName R30
SYMATTR Value 1m
SYMBOL res 1824 6048 R180
WINDOW 0 36 76 Left 2
WINDOW 3 36 40 Left 2
SYMATTR InstName R31
SYMATTR Value {Rinv_in}
SYMBOL npn 3248 6176 R0
SYMATTR InstName Q7
SYMATTR Value 2N3904
SYMBOL schottky 3216 6144 R270
WINDOW 0 32 32 VTop 2
WINDOW 3 0 32 VBottom 2
SYMATTR InstName D11
SYMATTR Value BAT54
SYMATTR Description Diode
SYMATTR Type diode
SYMBOL pnp 3248 5488 M180
SYMATTR InstName Q8
SYMATTR Value 2N3906
SYMBOL schottky 3264 5520 R90
WINDOW 0 0 32 VBottom 2
WINDOW 3 32 32 VTop 2
SYMATTR InstName D12
SYMATTR Value BAT54
SYMATTR Description Diode
SYMATTR Type diode
SYMBOL res 2768 5856 R180
WINDOW 0 36 76 Left 2
WINDOW 3 36 40 Left 2
SYMATTR InstName R32
SYMATTR Value {Rinv_in}
SYMBOL res 3296 5760 R0
SYMATTR InstName R33
SYMATTR Value 1
SYMBOL res 3296 5936 R0
SYMATTR InstName R34
SYMATTR Value 1
SYMBOL res 2736 5312 R0
SYMATTR InstName R35
SYMATTR Value {Rinv_in}
SYMBOL res 2736 6288 R0
SYMATTR InstName R36
SYMATTR Value {Rinv_in}
SYMBOL res 2592 5888 R90
WINDOW 0 0 56 VBottom 2
WINDOW 3 32 56 VTop 2
SYMATTR InstName R37
SYMATTR Value 1m
SYMBOL res 2768 6048 R180
WINDOW 0 36 76 Left 2
WINDOW 3 36 40 Left 2
SYMATTR InstName R38
SYMATTR Value {Rinv_in}
SYMBOL npn 4192 6176 R0
SYMATTR InstName Q9
SYMATTR Value 2N3904
SYMBOL schottky 4160 6144 R270
WINDOW 0 32 32 VTop 2
WINDOW 3 0 32 VBottom 2
SYMATTR InstName D13
SYMATTR Value BAT54
SYMATTR Description Diode
SYMATTR Type diode
SYMBOL pnp 4192 5488 M180
SYMATTR InstName Q10
SYMATTR Value 2N3906
SYMBOL schottky 4208 5520 R90
WINDOW 0 0 32 VBottom 2
WINDOW 3 32 32 VTop 2
SYMATTR InstName D14
SYMATTR Value BAT54
SYMATTR Description Diode
SYMATTR Type diode
SYMBOL res 3712 5856 R180
WINDOW 0 36 76 Left 2
WINDOW 3 36 40 Left 2
SYMATTR InstName R39
SYMATTR Value {Rinv_in}
SYMBOL res 4240 5760 R0
SYMATTR InstName R40
SYMATTR Value 1
SYMBOL res 4240 5936 R0
SYMATTR InstName R41
SYMATTR Value 1
SYMBOL res 3680 5312 R0
SYMATTR InstName R42
SYMATTR Value {Rinv_in}
SYMBOL res 3680 6288 R0
SYMATTR InstName R43
SYMATTR Value {Rinv_in}
SYMBOL res 3536 5888 R90
WINDOW 0 0 56 VBottom 2
WINDOW 3 32 56 VTop 2
SYMATTR InstName R44
SYMATTR Value 1m
SYMBOL res 3712 6048 R180
WINDOW 0 36 76 Left 2
WINDOW 3 36 40 Left 2
SYMATTR InstName R45
SYMATTR Value {Rinv_in}
SYMBOL npn 5136 6176 R0
SYMATTR InstName Q11
SYMATTR Value 2N3904
SYMBOL schottky 5104 6144 R270
WINDOW 0 32 32 VTop 2
WINDOW 3 0 32 VBottom 2
SYMATTR InstName D15
SYMATTR Value BAT54
SYMATTR Description Diode
SYMATTR Type diode
SYMBOL pnp 5136 5488 M180
SYMATTR InstName Q12
SYMATTR Value 2N3906
SYMBOL schottky 5152 5520 R90
WINDOW 0 0 32 VBottom 2