Version 4
SHEET 1 14868 7364
WIRE -528 32 -528 0
WIRE -528 128 -528 112
WIRE -736 512 -736 464
WIRE -736 608 -736 576
WIRE -480 688 -480 608
WIRE -736 704 -736 672
WIRE -480 800 -480 768
WIRE -736 880 -736 784
WIRE -480 880 -480 864
WIRE -480 992 -480 944
WIRE -2336 1424 -2400 1424
WIRE -2080 1424 -2256 1424
WIRE -1440 1424 -2080 1424
WIRE -496 1424 -1440 1424
WIRE 448 1424 -496 1424
WIRE 1392 1424 448 1424
WIRE 2336 1424 1392 1424
WIRE 3280 1424 2336 1424
WIRE 4224 1424 3280 1424
WIRE 5168 1424 4224 1424
WIRE -2336 1536 -2400 1536
WIRE -880 1536 -2256 1536
WIRE 64 1536 -880 1536
WIRE 1008 1536 64 1536
WIRE 1952 1536 1008 1536
WIRE 2896 1536 1952 1536
WIRE 3840 1536 2896 1536
WIRE 4784 1536 3840 1536
WIRE 5728 1536 4784 1536
WIRE -2080 1600 -2080 1424
WIRE -1440 1600 -1440 1424
WIRE -496 1600 -496 1424
WIRE 448 1600 448 1424
WIRE 1392 1600 1392 1424
WIRE 2336 1600 2336 1424
WIRE 3280 1600 3280 1424
WIRE 4224 1600 4224 1424
WIRE 5168 1600 5168 1424
WIRE -880 1664 -880 1536
WIRE 64 1664 64 1536
WIRE 1008 1664 1008 1536
WIRE 1952 1664 1952 1536
WIRE 2896 1664 2896 1536
WIRE 3840 1664 3840 1536
WIRE 4784 1664 4784 1536
WIRE 5728 1664 5728 1536
WIRE -944 1712 -1056 1712
WIRE 0 1712 -112 1712
WIRE 944 1712 832 1712
WIRE 1888 1712 1776 1712
WIRE 2832 1712 2720 1712
WIRE 3776 1712 3664 1712
WIRE 4720 1712 4608 1712
WIRE 5664 1712 5552 1712
WIRE -1440 1808 -1440 1680
WIRE -1056 1808 -1056 1712
WIRE -1056 1808 -1440 1808
WIRE -992 1808 -1056 1808
WIRE -880 1808 -880 1760
WIRE -880 1808 -928 1808
WIRE -496 1808 -496 1680
WIRE -112 1808 -112 1712
WIRE -112 1808 -496 1808
WIRE -48 1808 -112 1808
WIRE 64 1808 64 1760
WIRE 64 1808 16 1808
WIRE 448 1808 448 1680
WIRE 832 1808 832 1712
WIRE 832 1808 448 1808
WIRE 896 1808 832 1808
WIRE 1008 1808 1008 1760
WIRE 1008 1808 960 1808
WIRE 1392 1808 1392 1680
WIRE 1776 1808 1776 1712
WIRE 1776 1808 1392 1808
WIRE 1840 1808 1776 1808
WIRE 1952 1808 1952 1760
WIRE 1952 1808 1904 1808
WIRE 2336 1808 2336 1680
WIRE 2720 1808 2720 1712
WIRE 2720 1808 2336 1808
WIRE 2784 1808 2720 1808
WIRE 2896 1808 2896 1760
WIRE 2896 1808 2848 1808
WIRE 3280 1808 3280 1680
WIRE 3664 1808 3664 1712
WIRE 3664 1808 3280 1808
WIRE 3728 1808 3664 1808
WIRE 3840 1808 3840 1760
WIRE 3840 1808 3792 1808
WIRE 4224 1808 4224 1680
WIRE 4608 1808 4608 1712
WIRE 4608 1808 4224 1808
WIRE 4672 1808 4608 1808
WIRE 4784 1808 4784 1760
WIRE 4784 1808 4736 1808
WIRE 5168 1808 5168 1680
WIRE 5552 1808 5552 1712
WIRE 5552 1808 5168 1808
WIRE 5616 1808 5552 1808
WIRE 5728 1808 5728 1760
WIRE 5728 1808 5680 1808
WIRE -2080 2032 -2080 1680
WIRE -1440 2032 -1440 1808
WIRE -496 2032 -496 1808
WIRE 448 2032 448 1808
WIRE 1392 2032 1392 1808
WIRE 2336 2032 2336 1808
WIRE 3280 2032 3280 1808
WIRE 4224 2032 4224 1808
WIRE 5168 2032 5168 1808
WIRE -880 2048 -880 1808
WIRE 64 2048 64 1808
WIRE 1008 2048 1008 1808
WIRE 1952 2048 1952 1808
WIRE 2896 2048 2896 1808
WIRE 3840 2048 3840 1808
WIRE 4784 2048 4784 1808
WIRE 5728 2048 5728 1808
WIRE -2544 2176 -2576 2176
WIRE -2336 2176 -2544 2176
WIRE -2080 2176 -2080 2112
WIRE -2080 2176 -2256 2176
WIRE -1904 2176 -1936 2176
WIRE -1696 2176 -1904 2176
WIRE -1440 2176 -1440 2112
WIRE -1440 2176 -1616 2176
WIRE -880 2176 -880 2128
WIRE -800 2176 -880 2176
WIRE -752 2176 -800 2176
WIRE -496 2176 -496 2112
WIRE -496 2176 -672 2176
WIRE 64 2176 64 2128
WIRE 144 2176 64 2176
WIRE 192 2176 144 2176
WIRE 448 2176 448 2112
WIRE 448 2176 272 2176
WIRE 1008 2176 1008 2128
WIRE 1088 2176 1008 2176
WIRE 1136 2176 1088 2176
WIRE 1392 2176 1392 2112
WIRE 1392 2176 1216 2176
WIRE 1952 2176 1952 2128
WIRE 2032 2176 1952 2176
WIRE 2080 2176 2032 2176
WIRE 2336 2176 2336 2112
WIRE 2336 2176 2160 2176
WIRE 2896 2176 2896 2128
WIRE 2976 2176 2896 2176
WIRE 3024 2176 2976 2176
WIRE 3280 2176 3280 2112
WIRE 3280 2176 3104 2176
WIRE 3840 2176 3840 2128
WIRE 3920 2176 3840 2176
WIRE 3968 2176 3920 2176
WIRE 4224 2176 4224 2112
WIRE 4224 2176 4048 2176
WIRE 4784 2176 4784 2128
WIRE 4864 2176 4784 2176
WIRE 4912 2176 4864 2176
WIRE 5168 2176 5168 2112
WIRE 5168 2176 4992 2176
WIRE 5728 2176 5728 2128
WIRE 5808 2176 5728 2176
WIRE 5856 2176 5808 2176
WIRE -2080 2224 -2080 2176
WIRE -1440 2224 -1440 2176
WIRE -880 2224 -880 2176
WIRE -496 2224 -496 2176
WIRE 64 2224 64 2176
WIRE 448 2224 448 2176
WIRE 1008 2224 1008 2176
WIRE 1392 2224 1392 2176
WIRE 1952 2224 1952 2176
WIRE 2336 2224 2336 2176
WIRE 2896 2224 2896 2176
WIRE 3280 2224 3280 2176
WIRE 3840 2224 3840 2176
WIRE 4224 2224 4224 2176
WIRE 4784 2224 4784 2176
WIRE 5168 2224 5168 2176
WIRE 5728 2224 5728 2176
WIRE -976 2400 -1040 2400
WIRE -880 2400 -880 2304
WIRE -880 2400 -912 2400
WIRE -32 2400 -96 2400
WIRE 64 2400 64 2304
WIRE 64 2400 32 2400
WIRE 912 2400 848 2400
WIRE 1008 2400 1008 2304
WIRE 1008 2400 976 2400
WIRE 1856 2400 1792 2400
WIRE 1952 2400 1952 2304
WIRE 1952 2400 1920 2400
WIRE 2800 2400 2736 2400
WIRE 2896 2400 2896 2304
WIRE 2896 2400 2864 2400
WIRE 3744 2400 3680 2400
WIRE 3840 2400 3840 2304
WIRE 3840 2400 3808 2400
WIRE 4688 2400 4624 2400
WIRE 4784 2400 4784 2304
WIRE 4784 2400 4752 2400
WIRE 5632 2400 5568 2400
WIRE 5728 2400 5728 2304
WIRE 5728 2400 5696 2400
WIRE -880 2448 -880 2400
WIRE 64 2448 64 2400
WIRE 1008 2448 1008 2400
WIRE 1952 2448 1952 2400
WIRE 2896 2448 2896 2400
WIRE 3840 2448 3840 2400
WIRE 4784 2448 4784 2400
WIRE 5728 2448 5728 2400
WIRE -1440 2496 -1440 2304
WIRE -1040 2496 -1040 2400
WIRE -1040 2496 -1440 2496
WIRE -944 2496 -1040 2496
WIRE -496 2496 -496 2304
WIRE -96 2496 -96 2400
WIRE -96 2496 -496 2496
WIRE 0 2496 -96 2496
WIRE 448 2496 448 2304
WIRE 848 2496 848 2400
WIRE 848 2496 448 2496
WIRE 944 2496 848 2496
WIRE 1392 2496 1392 2304
WIRE 1792 2496 1792 2400
WIRE 1792 2496 1392 2496
WIRE 1888 2496 1792 2496
WIRE 2336 2496 2336 2304
WIRE 2736 2496 2736 2400
WIRE 2736 2496 2336 2496
WIRE 2832 2496 2736 2496
WIRE 3280 2496 3280 2304
WIRE 3680 2496 3680 2400
WIRE 3680 2496 3280 2496
WIRE 3776 2496 3680 2496
WIRE 4224 2496 4224 2304
WIRE 4624 2496 4624 2400
WIRE 4624 2496 4224 2496
WIRE 4720 2496 4624 2496
WIRE 5168 2496 5168 2304
WIRE 5568 2496 5568 2400
WIRE 5568 2496 5168 2496
WIRE 5664 2496 5568 2496
WIRE -2080 2576 -2080 2304
WIRE -1440 2576 -1440 2496
WIRE -496 2576 -496 2496
WIRE 448 2576 448 2496
WIRE 1392 2576 1392 2496
WIRE 2336 2576 2336 2496
WIRE 3280 2576 3280 2496
WIRE 4224 2576 4224 2496
WIRE 5168 2576 5168 2496
WIRE -2336 2704 -2400 2704
WIRE -880 2704 -880 2544
WIRE -880 2704 -2256 2704
WIRE 64 2704 64 2544
WIRE 64 2704 -880 2704
WIRE 1008 2704 1008 2544
WIRE 1008 2704 64 2704
WIRE 1952 2704 1952 2544
WIRE 1952 2704 1008 2704
WIRE 2896 2704 2896 2544
WIRE 2896 2704 1952 2704
WIRE 3840 2704 3840 2544
WIRE 3840 2704 2896 2704
WIRE 4784 2704 4784 2544
WIRE 4784 2704 3840 2704
WIRE 5728 2704 5728 2544
WIRE 5728 2704 4784 2704
WIRE -2400 2752 -2400 2704
WIRE -2336 2832 -2400 2832
WIRE -2080 2832 -2080 2656
WIRE -2080 2832 -2256 2832
WIRE -1440 2832 -1440 2656
WIRE -1440 2832 -2080 2832
WIRE -496 2832 -496 2656
WIRE -496 2832 -1440 2832
WIRE 448 2832 448 2656
WIRE 448 2832 -496 2832
WIRE 1392 2832 1392 2656
WIRE 1392 2832 448 2832
WIRE 2336 2832 2336 2656
WIRE 2336 2832 1392 2832
WIRE 3280 2832 3280 2656
WIRE 3280 2832 2336 2832
WIRE 4224 2832 4224 2656
WIRE 4224 2832 3280 2832
WIRE 5168 2832 5168 2656
WIRE 5168 2832 4224 2832
WIRE -2336 3056 -2400 3056
WIRE -1824 3056 -2256 3056
WIRE -1664 3056 -1824 3056
WIRE -736 3056 -1664 3056
WIRE -576 3056 -736 3056
WIRE -2336 3168 -2400 3168
WIRE -1376 3168 -2256 3168
WIRE -288 3168 -1376 3168
WIRE -1664 3232 -1664 3056
WIRE -576 3232 -576 3056
WIRE -1376 3296 -1376 3168
WIRE -288 3296 -288 3168
WIRE -1664 3344 -1664 3312
WIRE -1552 3344 -1664 3344
WIRE -1440 3344 -1552 3344
WIRE -576 3344 -576 3312
WIRE -464 3344 -576 3344
WIRE -352 3344 -464 3344
WIRE -2896 3376 -2896 3280
WIRE -1664 3408 -1664 3344
WIRE -576 3408 -576 3344
WIRE -1552 3440 -1552 3344
WIRE -1488 3440 -1552 3440
WIRE -1376 3440 -1376 3392
WIRE -1376 3440 -1424 3440
WIRE -464 3440 -464 3344
WIRE -400 3440 -464 3440
WIRE -288 3440 -288 3392
WIRE -288 3440 -336 3440
WIRE -2896 3536 -2896 3440
WIRE -2640 3616 -2640 3536
WIRE -1664 3616 -1664 3488
WIRE -576 3616 -576 3488
WIRE -2896 3632 -2896 3600
WIRE -1728 3664 -1968 3664
WIRE -640 3664 -880 3664
WIRE -1376 3680 -1376 3440
WIRE -288 3680 -288 3440
WIRE -2640 3728 -2640 3696
WIRE -2896 3808 -2896 3712
WIRE -2224 3808 -2256 3808
WIRE -2080 3808 -2224 3808
WIRE -1968 3808 -1968 3664
WIRE -1968 3808 -2000 3808
WIRE -1376 3808 -1376 3760
WIRE -1296 3808 -1376 3808
WIRE -992 3808 -1296 3808
WIRE -880 3808 -880 3664
WIRE -880 3808 -912 3808
WIRE -288 3808 -288 3760
WIRE -208 3808 -288 3808
WIRE -160 3808 -208 3808
WIRE -1824 3840 -1824 3056
WIRE -736 3840 -736 3056
WIRE -1376 3856 -1376 3808
WIRE -288 3856 -288 3808
WIRE -2640 3872 -2640 3792
WIRE -1968 3888 -1968 3808
WIRE -1888 3888 -1968 3888
WIRE -880 3888 -880 3808
WIRE -800 3888 -880 3888
WIRE -1824 3984 -1824 3936
WIRE -736 3984 -736 3936
WIRE -1472 4032 -1536 4032
WIRE -1376 4032 -1376 3936
WIRE -1376 4032 -1408 4032
WIRE -384 4032 -448 4032
WIRE -288 4032 -288 3936
WIRE -288 4032 -320 4032
WIRE -2640 4064 -2640 3936
WIRE -1968 4064 -1968 3888
WIRE -880 4064 -880 3888
WIRE -1376 4080 -1376 4032
WIRE -288 4080 -288 4032
WIRE -1824 4128 -1824 4064
WIRE -1536 4128 -1536 4032
WIRE -1536 4128 -1824 4128
WIRE -1440 4128 -1536 4128
WIRE -736 4128 -736 4064
WIRE -448 4128 -448 4032
WIRE -448 4128 -736 4128
WIRE -352 4128 -448 4128
WIRE -1824 4192 -1824 4128
WIRE -736 4192 -736 4128
WIRE -2336 4336 -2400 4336
WIRE -1968 4336 -1968 4144
WIRE -1968 4336 -2256 4336
WIRE -1376 4336 -1376 4176
WIRE -1376 4336 -1968 4336
WIRE -880 4336 -880 4144
WIRE -880 4336 -1376 4336
WIRE -288 4336 -288 4176
WIRE -288 4336 -880 4336
WIRE -2400 4384 -2400 4336
WIRE -2336 4464 -2400 4464
WIRE -1824 4464 -1824 4272
WIRE -1824 4464 -2256 4464
WIRE -1664 4464 -1664 3712
WIRE -1664 4464 -1824 4464
WIRE -736 4464 -736 4272
WIRE -736 4464 -1664 4464
WIRE -576 4464 -576 3712
WIRE -576 4464 -736 4464
FLAG -528 128 0
FLAG 352 0 BIT0
FLAG -528 0 VCC
FLAG 272 0 0
FLAG 352 160 BIT1
FLAG 272 160 0
FLAG 352 304 BIT2
FLAG 272 304 0
FLAG 352 448 BIT3
FLAG 272 448 0
FLAG 352 592 BIT4
FLAG 272 592 0
FLAG 1312 80 BIT0
FLAG 1312 160 0
FLAG 1472 80 BIT1
FLAG 1472 160 0
FLAG 1632 80 BIT2
FLAG 1632 160 0
FLAG 1792 80 BIT3
FLAG 1792 160 0
FLAG 1952 80 BIT4
FLAG 1952 160 0
FLAG -2400 2752 0
FLAG -800 2176 INV1
FLAG -1904 2176 BIT0
FLAG -2400 1536 VCC
FLAG -480 608 0
FLAG -736 880 VCC
FLAG -736 464 Vh
FLAG -480 992 Vl
FLAG -2400 1424 Vh
FLAG -2400 2832 Vl
FLAG 144 2176 INV2
FLAG 1088 2176 INV3
FLAG 2032 2176 INV4
FLAG 2976 2176 INV5
FLAG 3920 2176 INV6
FLAG 4864 2176 INV7
FLAG 5808 2176 INV8
FLAG -2400 4384 0
FLAG -1296 3808 BUF_INV1
FLAG -2224 3808 BIT0
FLAG -2400 3168 VCC
FLAG -2400 3056 Vh2
FLAG -2400 4464 Vl2
FLAG -2640 3536 0
FLAG -2896 3808 VCC
FLAG -2896 3280 Vh2
FLAG -2640 4064 Vl2
FLAG -2544 2176 BIT0
FLAG -208 3808 BUF_INV2
SYMBOL voltage -528 16 R0
WINDOW 123 0 0 Left 0
WINDOW 39 0 0 Left 0
SYMATTR InstName VCC
SYMATTR Value {VCC}
SYMBOL voltage 368 0 R90
WINDOW 123 -77 30 VRight 2
WINDOW 39 0 0 Left 0
WINDOW 0 -51 28 VRight 2
WINDOW 3 46 -379 VRight 2
SYMATTR Value2 AC 5
SYMATTR InstName V_BIT0
SYMATTR Value PULSE(0 {VCC} 0 {rise} {rise} {1/freq/2-rise} {1/freq} {16*reps})
SYMBOL voltage 368 160 R90
WINDOW 123 -77 30 VRight 2
WINDOW 39 0 0 Left 0
WINDOW 0 -51 28 VRight 2
WINDOW 3 46 -379 VRight 2
SYMATTR InstName V_BIT1
SYMATTR Value PULSE(0 {VCC} 0 {rise} {rise} {2*1/freq/2-rise} {2*1/freq} {8*reps})
SYMBOL voltage 368 304 R90
WINDOW 123 -77 30 VRight 2
WINDOW 39 0 0 Left 0
WINDOW 0 -51 28 VRight 2
WINDOW 3 46 -379 VRight 2
SYMATTR InstName V_BIT2
SYMATTR Value PULSE(0 {VCC} 0 {rise} {rise} {4*1/freq/2-rise} {4*1/freq} {4*reps})
SYMBOL voltage 368 448 R90
WINDOW 123 -77 30 VRight 2
WINDOW 39 0 0 Left 0
WINDOW 0 -51 28 VRight 2
WINDOW 3 46 -379 VRight 2
SYMATTR InstName V_BIT3
SYMATTR Value PULSE(0 {VCC} 0 {rise} {rise} {8*1/freq/2-rise} {8*1/freq} {2*reps})
SYMBOL voltage 368 592 R90
WINDOW 123 -77 30 VRight 2
WINDOW 39 0 0 Left 0
WINDOW 0 -51 28 VRight 2
WINDOW 3 46 -379 VRight 2
SYMATTR InstName V_BIT4
SYMATTR Value PULSE(0 {VCC} 0 {rise} {rise} {16*1/freq/2-rise} {16*1/freq} {1*reps})
SYMBOL res 1296 64 R0
SYMATTR InstName R1
SYMATTR Value 10Mega
SYMBOL res 1456 64 R0
SYMATTR InstName R2
SYMATTR Value 10Mega
SYMBOL res 1616 64 R0
SYMATTR InstName R3
SYMATTR Value 10Mega
SYMBOL res 1776 64 R0
SYMATTR InstName R4
SYMATTR Value 10Mega
SYMBOL res 1936 64 R0
SYMATTR InstName R5
SYMATTR Value 10Mega
SYMBOL npn -944 2448 R0
SYMATTR InstName Q1
SYMATTR Value 2N3904
SYMBOL schottky -976 2416 R270
WINDOW 0 32 32 VTop 2
WINDOW 3 0 32 VBottom 2
SYMATTR InstName D1
SYMATTR Value BAT54
SYMATTR Description Diode
SYMATTR Type diode
SYMBOL res -2352 1552 R270
WINDOW 0 32 56 VTop 2
WINDOW 3 0 56 VBottom 2
SYMATTR InstName R12
SYMATTR Value 1m
SYMBOL pnp -944 1760 M180
SYMATTR InstName Q2
SYMATTR Value 2N3906
SYMBOL schottky -928 1792 R90
WINDOW 0 0 32 VBottom 2
WINDOW 3 32 32 VTop 2
SYMATTR InstName D2
SYMATTR Value BAT54
SYMATTR Description Diode
SYMATTR Type diode
SYMBOL res -1424 2128 R180
WINDOW 0 36 76 Left 2
WINDOW 3 36 40 Left 2
SYMATTR InstName R15
SYMATTR Value {Rinv_in}
SYMBOL res -896 2032 R0
SYMATTR InstName R16
SYMATTR Value 1
SYMBOL res -896 2208 R0
SYMATTR InstName R17
SYMATTR Value 1
SYMBOL res -1456 1584 R0
SYMATTR InstName R18
SYMATTR Value {Rinv_in}
SYMBOL res -1456 2560 R0
SYMATTR InstName R19
SYMATTR Value {Rinv_in}
SYMBOL res -1600 2160 R90
WINDOW 0 0 56 VBottom 2
WINDOW 3 32 56 VTop 2
SYMATTR InstName R20
SYMATTR Value 1m
SYMBOL res -1424 2320 R180
WINDOW 0 36 76 Left 2
WINDOW 3 36 40 Left 2
SYMATTR InstName R14
SYMATTR Value {Rinv_in}
SYMBOL voltage -736 688 R0
WINDOW 123 0 0 Left 0
WINDOW 39 0 0 Left 0
SYMATTR InstName VCC1
SYMATTR Value {VCC/2}
SYMBOL voltage -480 672 R0
WINDOW 123 0 0 Left 0
WINDOW 39 0 0 Left 0
SYMATTR InstName VCC2
SYMATTR Value {VCC/2}
SYMBOL diode -464 864 R180
WINDOW 0 24 64 Left 2
WINDOW 3 24 0 Left 2
SYMATTR InstName D3
SYMATTR Value 1N4148
SYMBOL diode -464 944 R180
WINDOW 0 24 64 Left 2
WINDOW 3 24 0 Left 2
SYMATTR InstName D4
SYMATTR Value 1N4148
SYMBOL diode -720 672 R180
WINDOW 0 24 64 Left 2
WINDOW 3 24 0 Left 2
SYMATTR InstName D5
SYMATTR Value 1N4148
SYMBOL diode -720 576 R180
WINDOW 0 24 64 Left 2
WINDOW 3 24 0 Left 2
SYMATTR InstName D6
SYMATTR Value 1N4148
SYMBOL res -2352 1440 R270
WINDOW 0 32 56 VTop 2
WINDOW 3 0 56 VBottom 2
SYMATTR InstName R6
SYMATTR Value 1m
SYMBOL res -2352 2720 R270
WINDOW 0 32 56 VTop 2
WINDOW 3 0 56 VBottom 2
SYMATTR InstName R8
SYMATTR Value 1m
SYMBOL res -2352 2848 R270
WINDOW 0 32 56 VTop 2
WINDOW 3 0 56 VBottom 2
SYMATTR InstName R9
SYMATTR Value 1m
SYMBOL npn 0 2448 R0
SYMATTR InstName Q3
SYMATTR Value 2N3904
SYMBOL schottky -32 2416 R270
WINDOW 0 32 32 VTop 2
WINDOW 3 0 32 VBottom 2
SYMATTR InstName D7
SYMATTR Value BAT54
SYMATTR Description Diode
SYMATTR Type diode
SYMBOL pnp 0 1760 M180
SYMATTR InstName Q4
SYMATTR Value 2N3906
SYMBOL schottky 16 1792 R90
WINDOW 0 0 32 VBottom 2
WINDOW 3 32 32 VTop 2
SYMATTR InstName D8
SYMATTR Value BAT54
SYMATTR Description Diode
SYMATTR Type diode
SYMBOL res -480 2128 R180
WINDOW 0 36 76 Left 2
WINDOW 3 36 40 Left 2
SYMATTR InstName R10
SYMATTR Value {Rinv_in}
SYMBOL res 48 2032 R0
SYMATTR InstName R11
SYMATTR Value 1
SYMBOL res 48 2208 R0
SYMATTR InstName R13
SYMATTR Value 1
SYMBOL res -512 1584 R0
SYMATTR InstName R21
SYMATTR Value {Rinv_in}
SYMBOL res -512 2560 R0
SYMATTR InstName R22
SYMATTR Value {Rinv_in}
SYMBOL res -656 2160 R90
WINDOW 0 0 56 VBottom 2
WINDOW 3 32 56 VTop 2
SYMATTR InstName R23
SYMATTR Value 1m
SYMBOL res -480 2320 R180
WINDOW 0 36 76 Left 2
WINDOW 3 36 40 Left 2
SYMATTR InstName R24
SYMATTR Value {Rinv_in}
SYMBOL npn 944 2448 R0
SYMATTR InstName Q5
SYMATTR Value 2N3904
SYMBOL schottky 912 2416 R270
WINDOW 0 32 32 VTop 2
WINDOW 3 0 32 VBottom 2
SYMATTR InstName D9
SYMATTR Value BAT54
SYMATTR Description Diode
SYMATTR Type diode
SYMBOL pnp 944 1760 M180
SYMATTR InstName Q6
SYMATTR Value 2N3906
SYMBOL schottky 960 1792 R90
WINDOW 0 0 32 VBottom 2
WINDOW 3 32 32 VTop 2
SYMATTR InstName D10
SYMATTR Value BAT54
SYMATTR Description Diode
SYMATTR Type diode
SYMBOL res 464 2128 R180
WINDOW 0 36 76 Left 2
WINDOW 3 36 40 Left 2
SYMATTR InstName R25
SYMATTR Value {Rinv_in}
SYMBOL res 992 2032 R0
SYMATTR InstName R26
SYMATTR Value 1
SYMBOL res 992 2208 R0
SYMATTR InstName R27
SYMATTR Value 1
SYMBOL res 432 1584 R0
SYMATTR InstName R28
SYMATTR Value {Rinv_in}
SYMBOL res 432 2560 R0
SYMATTR InstName R29
SYMATTR Value {Rinv_in}
SYMBOL res 288 2160 R90
WINDOW 0 0 56 VBottom 2
WINDOW 3 32 56 VTop 2
SYMATTR InstName R30
SYMATTR Value 1m
SYMBOL res 464 2320 R180
WINDOW 0 36 76 Left 2
WINDOW 3 36 40 Left 2
SYMATTR InstName R31
SYMATTR Value {Rinv_in}
SYMBOL npn 1888 2448 R0
SYMATTR InstName Q7
SYMATTR Value 2N3904
SYMBOL schottky 1856 2416 R270
WINDOW 0 32 32 VTop 2
WINDOW 3 0 32 VBottom 2
SYMATTR InstName D11
SYMATTR Value BAT54
SYMATTR Description Diode
SYMATTR Type diode
SYMBOL pnp 1888 1760 M180
SYMATTR InstName Q8
SYMATTR Value 2N3906
SYMBOL schottky 1904 1792 R90
WINDOW 0 0 32 VBottom 2
WINDOW 3 32 32 VTop 2
SYMATTR InstName D12
SYMATTR Value BAT54
SYMATTR Description Diode
SYMATTR Type diode
SYMBOL res 1408 2128 R180
WINDOW 0 36 76 Left 2
WINDOW 3 36 40 Left 2
SYMATTR InstName R32
SYMATTR Value {Rinv_in}
SYMBOL res 1936 2032 R0
SYMATTR InstName R33
SYMATTR Value 1
SYMBOL res 1936 2208 R0
SYMATTR InstName R34
SYMATTR Value 1
SYMBOL res 1376 1584 R0
SYMATTR InstName R35
SYMATTR Value {Rinv_in}
SYMBOL res 1376 2560 R0
SYMATTR InstName R36
SYMATTR Value {Rinv_in}
SYMBOL res 1232 2160 R90
WINDOW 0 0 56 VBottom 2
WINDOW 3 32 56 VTop 2
SYMATTR InstName R37
SYMATTR Value 1m
SYMBOL res 1408 2320 R180
WINDOW 0 36 76 Left 2
WINDOW 3 36 40 Left 2
SYMATTR InstName R38
SYMATTR Value {Rinv_in}
SYMBOL npn 2832 2448 R0
SYMATTR InstName Q9
SYMATTR Value 2N3904
SYMBOL schottky 2800 2416 R270
WINDOW 0 32 32 VTop 2
WINDOW 3 0 32 VBottom 2
SYMATTR InstName D13
SYMATTR Value BAT54
SYMATTR Description Diode
SYMATTR Type diode
SYMBOL pnp 2832 1760 M180
SYMATTR InstName Q10
SYMATTR Value 2N3906
SYMBOL schottky 2848 1792 R90
WINDOW 0 0 32 VBottom 2
WINDOW 3 32 32 VTop 2
SYMATTR InstName D14
SYMATTR Value BAT54
SYMATTR Description Diode
SYMATTR Type diode
SYMBOL res 2352 2128 R180
WINDOW 0 36 76 Left 2
WINDOW 3 36 40 Left 2
SYMATTR InstName R39
SYMATTR Value {Rinv_in}
SYMBOL res 2880 2032 R0
SYMATTR InstName R40
SYMATTR Value 1
SYMBOL res 2880 2208 R0
SYMATTR InstName R41
SYMATTR Value 1
SYMBOL res 2320 1584 R0
SYMATTR InstName R42
SYMATTR Value {Rinv_in}
SYMBOL res 2320 2560 R0
SYMATTR InstName R43
SYMATTR Value {Rinv_in}
SYMBOL res 2176 2160 R90
WINDOW 0 0 56 VBottom 2
WINDOW 3 32 56 VTop 2
SYMATTR InstName R44
SYMATTR Value 1m
SYMBOL res 2352 2320 R180
WINDOW 0 36 76 Left 2
WINDOW 3 36 40 Left 2
SYMATTR InstName R45
SYMATTR Value {Rinv_in}
SYMBOL npn 3776 2448 R0
SYMATTR InstName Q11
SYMATTR Value 2N3904
SYMBOL schottky 3744 2416 R270
WINDOW 0 32 32 VTop 2
WINDOW 3 0 32 VBottom 2
SYMATTR InstName D15
SYMATTR Value BAT54
SYMATTR Description Diode
SYMATTR Type diode
SYMBOL pnp 3776 1760 M180
SYMATTR InstName Q12
SYMATTR Value 2N3906
SYMBOL schottky 3792 1792 R90
WINDOW 0 0 32 VBottom 2
WINDOW 3 32 32 VTop 2
SYMATTR InstName D16
SYMATTR Value BAT54
SYMATTR Description Diode
SYMATTR Type diode
SYMBOL res 3296 2128 R180
WINDOW 0 36 76 Left 2
WINDOW 3 36 40 Left 2
SYMATTR InstName R46
SYMATTR Value {Rinv_in}
SYMBOL res 3824 2032 R0
SYMATTR InstName R47
SYMATTR Value 1
SYMBOL res 3824 2208 R0
SYMATTR InstName R48
SYMATTR Value 1
SYMBOL res 3264 1584 R0
SYMATTR InstName R49
SYMATTR Value {Rinv_in}
SYMBOL res 3264 2560 R0
SYMATTR InstName R50
SYMATTR Value {Rinv_in}
SYMBOL res 3120 2160 R90
WINDOW 0 0 56 VBottom 2
WINDOW 3 32 56 VTop 2
SYMATTR InstName R51
SYMATTR Value 1m
SYMBOL res 3296 2320 R180
WINDOW 0 36 76 Left 2
WINDOW 3 36 40 Left 2
SYMATTR InstName R52
SYMATTR Value {Rinv_in}
SYMBOL npn 4720 2448 R0
SYMATTR InstName Q13
SYMATTR Value 2N3904
SYMBOL schottky 4688 2416 R270
WINDOW 0 32 32 VTop 2
WINDOW 3 0 32 VBottom 2
SYMATTR InstName D17
SYMATTR Value BAT54
SYMATTR Description Diode
SYMATTR Type diode
SYMBOL pnp 4720 1760 M180
SYMATTR InstName Q14
SYMATTR Value 2N3906
SYMBOL schottky 4736 1792 R90
WINDOW 0 0 32 VBottom 2
WINDOW 3 32 32 VTop 2
SYMATTR InstName D18
SYMATTR Value BAT54
SYMATTR Description Diode
SYMATTR Type diode
SYMBOL res 4240 2128 R180
WINDOW 0 36 76 Left 2
WINDOW 3 36 40 Left 2
SYMATTR InstName R53
SYMATTR Value {Rinv_in}
SYMBOL res 4768 2032 R0
SYMATTR InstName R54
SYMATTR Value 1
SYMBOL res 4768 2208 R0
SYMATTR InstName R55
SYMATTR Value 1
SYMBOL res 4208 1584 R0
SYMATTR InstName R56
SYMATTR Value {Rinv_in}
SYMBOL res 4208 2560 R0
SYMATTR InstName R57
SYMATTR Value {Rinv_in}
SYMBOL res 4064 2160 R90
WINDOW 0 0 56 VBottom 2
WINDOW 3 32 56 VTop 2
SYMATTR InstName R58
SYMATTR Value 1m
SYMBOL res 4240 2320 R180
WINDOW 0 36 76 Left 2
WINDOW 3 36 40 Left 2
SYMATTR InstName R59
SYMATTR Value {Rinv_in}
SYMBOL npn 5664 2448 R0
SYMATTR InstName Q15
SYMATTR Value 2N3904
SYMBOL schottky 5632 2416 R270
WINDOW 0 32 32 VTop 2
WINDOW 3 0 32 VBottom 2
SYMATTR InstName D19
SYMATTR Value BAT54
SYMATTR Description Diode
SYMATTR Type diode
SYMBOL pnp 5664 1760 M180
SYMATTR InstName Q16
SYMATTR Value 2N3906
SYMBOL schottky 5680 1792 R90
WINDOW 0 0 32 VBottom 2
WINDOW 3 32 32 VTop 2
SYMATTR InstName D20
SYMATTR Value BAT54
SYMATTR Description Diode
SYMATTR Type diode
SYMBOL res 5184 2128 R180
WINDOW 0 36 76 Left 2
WINDOW 3 36 40 Left 2
SYMATTR InstName R60
SYMATTR Value {Rinv_in}
SYMBOL res 5712 2032 R0
SYMATTR InstName R61
SYMATTR Value 1
SYMBOL res 5712 2208 R0
SYMATTR InstName R62
SYMATTR Value 1
SYMBOL res 5152 1584 R0
SYMATTR InstName R63
SYMATTR Value {Rinv_in}
SYMBOL res 5152 2560 R0
SYMATTR InstName R64
SYMATTR Value {Rinv_in}
SYMBOL res 5008 2160 R90
WINDOW 0 0 56 VBottom 2
WINDOW 3 32 56 VTop 2
SYMATTR InstName R65
SYMATTR Value 1m
SYMBOL res 5184 2320 R180
WINDOW 0 36 76 Left 2
WINDOW 3 36 40 Left 2
SYMATTR InstName R66
SYMATTR Value {Rinv_in}
SYMBOL npn -1440 4080 R0
SYMATTR InstName Q17
SYMATTR Value 2N3904
SYMBOL schottky -1472 4048 R270
WINDOW 0 32 32 VTop 2
WINDOW 3 0 32 VBottom 2
SYMATTR InstName D21
SYMATTR Value BAT54
SYMATTR Description Diode
SYMATTR Type diode
SYMBOL res -2352 3184 R270
WINDOW 0 32 56 VTop 2
WINDOW 3 0 56 VBottom 2
SYMATTR InstName R7
SYMATTR Value 1m
SYMBOL pnp -1440 3392 M180
SYMATTR InstName Q18
SYMATTR Value 2N3906
SYMBOL schottky -1424 3424 R90
WINDOW 0 0 32 VBottom 2
WINDOW 3 32 32 VTop 2
SYMATTR InstName D22
SYMATTR Value BAT54
SYMATTR Description Diode
SYMATTR Type diode
SYMBOL res -1392 3664 R0
SYMATTR InstName R68
SYMATTR Value 1
SYMBOL res -1392 3840 R0
SYMATTR InstName R69
SYMATTR Value 1
SYMBOL res -2352 3072 R270
WINDOW 0 32 56 VTop 2
WINDOW 3 0 56 VBottom 2
SYMATTR InstName R74
SYMATTR Value 1m
SYMBOL res -2352 4352 R270
WINDOW 0 32 56 VTop 2
WINDOW 3 0 56 VBottom 2
SYMATTR InstName R75
SYMATTR Value 1m
SYMBOL res -2352 4480 R270
WINDOW 0 32 56 VTop 2
WINDOW 3 0 56 VBottom 2
SYMATTR InstName R76
SYMATTR Value 1m
SYMBOL res -1984 3792 R90
WINDOW 0 0 56 VBottom 2
WINDOW 3 32 56 VTop 2
SYMATTR InstName R78
SYMATTR Value {Rb}
SYMBOL voltage -2896 3616 R0
WINDOW 123 0 0 Left 0
WINDOW 39 0 0 Left 0
SYMATTR InstName VCC3
SYMATTR Value {VCC/2}
SYMBOL voltage -2640 3600 R0
WINDOW 123 0 0 Left 0
WINDOW 39 0 0 Left 0
SYMATTR InstName VCC4
SYMATTR Value {VCC/2}
SYMBOL diode -2624 3792 R180
WINDOW 0 24 64 Left 2
WINDOW 3 24 0 Left 2
SYMATTR InstName D27
SYMATTR Value 1N4148
SYMBOL diode -2880 3600 R180
WINDOW 0 24 64 Left 2
WINDOW 3 24 0 Left 2
SYMATTR InstName D29
SYMATTR Value 1N4148
SYMBOL res -2064 2128 R180
WINDOW 0 36 76 Left 2
WINDOW 3 36 40 Left 2
SYMATTR InstName R97
SYMATTR Value {Rinv_in}
SYMBOL res -2096 1584 R0
SYMATTR InstName R105
SYMATTR Value {Rinv_in}
SYMBOL res -2096 2560 R0
SYMATTR InstName R106
SYMATTR Value {Rinv_in}
SYMBOL res -2240 2160 R90
WINDOW 0 0 56 VBottom 2
WINDOW 3 32 56 VTop 2
SYMATTR InstName R107
SYMATTR Value 1m
SYMBOL res -2064 2320 R180
WINDOW 0 36 76 Left 2
WINDOW 3 36 40 Left 2
SYMATTR InstName R108
SYMATTR Value {Rinv_in}
SYMBOL res -1808 4288 R180
WINDOW 0 36 76 Left 2
WINDOW 3 36 40 Left 2
SYMATTR InstName R83
SYMATTR Value {Rinv_in}
SYMBOL npn -1888 3840 R0
SYMATTR InstName Q19
SYMATTR Value 2N3904
SYMBOL res -1648 3328 R180
WINDOW 0 36 76 Left 2
WINDOW 3 36 40 Left 2
SYMATTR InstName R70
SYMATTR Value {Rinv_in}
SYMBOL pnp -1728 3712 M180
SYMATTR InstName Q20
SYMATTR Value 2N3906
SYMBOL res -1808 4080 R180
WINDOW 0 36 76 Left 2
WINDOW 3 36 40 Left 2
SYMATTR InstName R67
SYMATTR Value {Rinv_in}
SYMBOL res -1648 3504 R180
WINDOW 0 36 76 Left 2
WINDOW 3 36 40 Left 2
SYMATTR InstName R71
SYMATTR Value {Rinv_in}
SYMBOL npn -352 4080 R0
SYMATTR InstName Q21
SYMATTR Value 2N3904
SYMBOL schottky -384 4048 R270
WINDOW 0 32 32 VTop 2
WINDOW 3 0 32 VBottom 2
SYMATTR InstName D23
SYMATTR Value BAT54
SYMATTR Description Diode
SYMATTR Type diode
SYMBOL pnp -352 3392 M180
SYMATTR InstName Q22
SYMATTR Value 2N3906
SYMBOL schottky -336 3424 R90
WINDOW 0 0 32 VBottom 2
WINDOW 3 32 32 VTop 2
SYMATTR InstName D24
SYMATTR Value BAT54
SYMATTR Description Diode
SYMATTR Type diode
SYMBOL res -304 3664 R0
SYMATTR InstName R72
SYMATTR Value 1
SYMBOL res -304 3840 R0
SYMATTR InstName R73
SYMATTR Value 1
SYMBOL res -896 3792 R90
WINDOW 0 0 56 VBottom 2
WINDOW 3 32 56 VTop 2
SYMATTR InstName R80
SYMATTR Value {Rb}
SYMBOL res -720 4288 R180
WINDOW 0 36 76 Left 2
WINDOW 3 36 40 Left 2
SYMATTR InstName R81
SYMATTR Value {Rinv_in}
SYMBOL npn -800 3840 R0
SYMATTR InstName Q23
SYMATTR Value 2N3904
SYMBOL res -560 3328 R180
WINDOW 0 36 76 Left 2
WINDOW 3 36 40 Left 2
SYMATTR InstName R82
SYMATTR Value {Rinv_in}
SYMBOL pnp -640 3712 M180
SYMATTR InstName Q24
SYMATTR Value 2N3906
SYMBOL res -720 4080 R180
WINDOW 0 36 76 Left 2
WINDOW 3 36 40 Left 2
SYMATTR InstName R84
SYMATTR Value {Rinv_in}
SYMBOL res -560 3504 R180
WINDOW 0 36 76 Left 2
WINDOW 3 36 40 Left 2
SYMATTR InstName R85
SYMATTR Value {Rinv_in}
SYMBOL diode -2624 3936 R180
WINDOW 0 24 64 Left 2
WINDOW 3 24 0 Left 2
SYMATTR InstName D25
SYMATTR Value 1N4148
SYMBOL diode -2880 3440 R180
WINDOW 0 24 64 Left 2
WINDOW 3 24 0 Left 2
SYMATTR InstName D26
SYMATTR Value 1N4148
SYMBOL res -1984 4048 R0
SYMATTR InstName R79
SYMATTR Value {Rb*10}
SYMBOL res -896 4048 R0
SYMATTR InstName R86
SYMATTR Value {Rb*10}
TEXT -560 320 Left 2 !.tran {16*reps/freq}
TEXT -560 376 Left 2 ;.ac oct 100 1k 100mega
TEXT -560 408 Left 2 ;.dc V_BIT0 0 {VCC} 0.01
TEXT -840 -24 Left 2 !.param VCC=5
TEXT -840 8 Left 2 !.param freq=10Mega
TEXT -840 40 Left 2 !.param rise=1n
TEXT -840 72 Left 2 !.param reps=1
TEXT -840 104 Left 2 !.param Rb=100
TEXT -840 -192 Left 2 ;Rb controls gate delay (rise and fall edge) as well as gate power consumption.\n \nRb=100 --> 4/5ns gate delay; 35mA gate power\nRb=200 --> 6/8ns gate delay; 20mA gate power
TEXT 408 1376 Left 2 ;This invertert chain produces 1.5V swing around 2.5V, consumes around 15mA per inverter and seems to have a propagation delay of about 1ns.
TEXT -840 136 Left 2 !.param Rinv_in=100
TEXT -3640 2752 Left 2 !.step temp -25 125 25
TEXT -2008 2984 Left 2 ;I think this is the inverter I would want to use for logic. This needs a 5V supply to operate reasonable well though, which incerases power consumption quite a bit.
