Version 4
SHEET 1 37460 9492
WIRE 1024 3584 928 3584
WIRE 928 3600 928 3584
WIRE 928 3600 896 3600
WIRE 1024 3600 960 3600
WIRE 672 3616 608 3616
WIRE 832 3616 752 3616
WIRE 1024 3616 976 3616
WIRE 1152 3616 1088 3616
WIRE 1200 3616 1152 3616
WIRE 832 3632 800 3632
WIRE 976 3664 976 3616
WIRE 1152 3664 1152 3616
WIRE 832 3712 784 3712
WIRE 960 3712 960 3600
WIRE 960 3712 896 3712
WIRE 832 3728 816 3728
WIRE 976 3744 1152 3664
WIRE 1152 3744 976 3664
WIRE 976 3808 976 3744
WIRE 1024 3808 976 3808
WIRE -1168 3824 -1168 3792
WIRE 1024 3824 928 3824
WIRE -736 3840 -736 3808
WIRE -560 3840 -560 3808
WIRE 672 3840 752 3616
WIRE 672 3840 608 3840
WIRE 752 3840 672 3616
WIRE 768 3840 752 3840
WIRE 1024 3840 944 3840
WIRE 1152 3840 1152 3744
WIRE 1152 3840 1088 3840
WIRE 1200 3840 1152 3840
WIRE 768 3872 768 3840
WIRE 832 3872 768 3872
WIRE 928 3872 928 3824
WIRE 928 3872 896 3872
WIRE 800 3888 800 3632
WIRE 800 3888 608 3888
WIRE 832 3888 800 3888
WIRE 784 3904 784 3712
WIRE -1168 3920 -1168 3904
WIRE 784 4000 784 3968
WIRE 784 4000 608 4000
WIRE 832 4000 784 4000
WIRE 944 4000 944 3840
WIRE 944 4000 896 4000
WIRE 816 4016 816 3728
WIRE 816 4016 608 4016
WIRE 832 4016 816 4016
WIRE 560 4160 304 4160
WIRE 2272 4160 2016 4160
WIRE 3840 4160 3584 4160
WIRE -1472 4208 -1536 4208
WIRE -992 4208 -1392 4208
WIRE -704 4208 -992 4208
WIRE -496 4208 -704 4208
WIRE -208 4208 -496 4208
WIRE 400 4240 304 4240
WIRE 672 4240 480 4240
WIRE 944 4240 672 4240
WIRE 1120 4240 944 4240
WIRE 1424 4240 1120 4240
WIRE 2112 4240 2016 4240
WIRE 2384 4240 2192 4240
WIRE 2512 4240 2384 4240
WIRE 2832 4240 2512 4240
WIRE 3136 4240 2832 4240
WIRE 3680 4240 3584 4240
WIRE 3952 4240 3760 4240
WIRE 4080 4240 3952 4240
WIRE 4400 4240 4080 4240
WIRE 4704 4240 4400 4240
WIRE 672 4256 672 4240
WIRE 2832 4288 2832 4240
WIRE 4400 4288 4400 4240
WIRE 944 4304 944 4240
WIRE 1424 4336 1424 4240
WIRE 2384 4336 2384 4240
WIRE 3952 4336 3952 4240
WIRE 672 4352 672 4336
WIRE 800 4352 672 4352
WIRE 880 4352 800 4352
WIRE 3136 4368 3136 4240
WIRE 4704 4368 4704 4240
WIRE -704 4384 -704 4208
WIRE -208 4384 -208 4208
WIRE 1120 4384 1120 4240
WIRE 2272 4384 2272 4160
WIRE 2320 4384 2272 4384
WIRE 3840 4384 3840 4160
WIRE 3888 4384 3840 4384
WIRE 2832 4416 2832 4368
WIRE 2976 4416 2832 4416
WIRE 3072 4416 2976 4416
WIRE 4400 4416 4400 4368
WIRE 4544 4416 4400 4416
WIRE 4640 4416 4544 4416
WIRE 1056 4432 1008 4432
WIRE -992 4448 -992 4208
WIRE -496 4448 -496 4208
WIRE 1424 4448 1424 4416
WIRE 1520 4448 1424 4448
WIRE 2832 4464 2832 4416
WIRE 4400 4464 4400 4416
WIRE -1488 4496 -1536 4496
WIRE -1056 4496 -1488 4496
WIRE -704 4496 -704 4464
WIRE -656 4496 -704 4496
WIRE -560 4496 -656 4496
WIRE -208 4496 -208 4464
WIRE -144 4496 -208 4496
WIRE -96 4496 -144 4496
WIRE 800 4512 800 4352
WIRE 2512 4512 2512 4240
WIRE 2976 4512 2976 4416
WIRE 3040 4512 2976 4512
WIRE 3136 4512 3136 4464
WIRE 3136 4512 3104 4512
WIRE 4080 4512 4080 4240
WIRE 4544 4512 4544 4416
WIRE 4608 4512 4544 4512
WIRE 4704 4512 4704 4464
WIRE 4704 4512 4672 4512
WIRE 944 4528 944 4400
WIRE 1120 4528 1120 4480
WIRE 1120 4528 944 4528
WIRE 736 4560 304 4560
WIRE 1120 4560 1120 4528
WIRE 1424 4560 1424 4448
WIRE 1696 4560 1424 4560
WIRE 2448 4560 2016 4560
WIRE 3136 4560 3136 4512
WIRE 3232 4560 3136 4560
WIRE 3408 4560 3232 4560
WIRE 3632 4560 3584 4560
WIRE 3808 4560 3712 4560
WIRE 4016 4560 3808 4560
WIRE 4704 4560 4704 4512
WIRE 4800 4560 4704 4560
WIRE 4976 4560 4800 4560
WIRE -992 4576 -992 4544
WIRE -496 4576 -496 4544
WIRE 2832 4576 2832 4544
WIRE 2832 4576 2656 4576
WIRE 4400 4576 4400 4544
WIRE 4400 4576 4224 4576
WIRE 1328 4592 1264 4592
WIRE 1424 4592 1424 4560
WIRE 1424 4592 1392 4592
WIRE -800 4624 -864 4624
WIRE -704 4624 -704 4496
WIRE -704 4624 -736 4624
WIRE -304 4624 -368 4624
WIRE -208 4624 -208 4496
WIRE -208 4624 -240 4624
WIRE 2832 4624 2832 4576
WIRE 4400 4624 4400 4576
WIRE 1424 4640 1424 4592
WIRE 3808 4656 3808 4560
WIRE -704 4672 -704 4624
WIRE -208 4672 -208 4624
WIRE 672 4672 672 4352
WIRE 2768 4672 2720 4672
WIRE 4336 4672 4288 4672
WIRE 1120 4688 1120 4640
WIRE 1264 4688 1264 4592
WIRE 1264 4688 1120 4688
WIRE 1360 4688 1264 4688
WIRE 3136 4688 3136 4560
WIRE 4704 4688 4704 4560
WIRE 2656 4704 2656 4576
WIRE 4224 4704 4224 4576
WIRE -992 4720 -992 4656
WIRE -864 4720 -864 4624
WIRE -864 4720 -992 4720
WIRE -768 4720 -864 4720
WIRE -496 4720 -496 4656
WIRE -368 4720 -368 4624
WIRE -368 4720 -496 4720
WIRE -272 4720 -368 4720
WIRE 560 4720 560 4160
WIRE 608 4720 560 4720
WIRE 1120 4736 1120 4688
WIRE 2384 4752 2384 4432
WIRE 2512 4752 2512 4608
WIRE 2512 4752 2384 4752
WIRE 2592 4752 2512 4752
WIRE 3952 4752 3952 4432
WIRE 4080 4752 4080 4608
WIRE 4080 4752 3952 4752
WIRE 4160 4752 4080 4752
WIRE -992 4768 -992 4720
WIRE -496 4768 -496 4720
WIRE 2384 4768 2384 4752
WIRE 3952 4768 3952 4752
WIRE 672 4864 672 4768
WIRE 672 4864 304 4864
WIRE 800 4864 800 4608
WIRE 800 4864 672 4864
WIRE 1120 4864 1120 4816
WIRE 1120 4864 800 4864
WIRE 1424 4864 1424 4736
WIRE 1424 4864 1120 4864
WIRE 2384 4864 2384 4848
WIRE 2384 4864 2016 4864
WIRE 2656 4864 2656 4800
WIRE 2656 4864 2384 4864
WIRE 2832 4864 2832 4720
WIRE 2832 4864 2656 4864
WIRE 3136 4864 3136 4768
WIRE 3136 4864 2832 4864
WIRE 3808 4864 3808 4720
WIRE 3808 4864 3584 4864
WIRE 3952 4864 3952 4848
WIRE 3952 4864 3808 4864
WIRE 4224 4864 4224 4800
WIRE 4224 4864 3952 4864
WIRE 4400 4864 4400 4720
WIRE 4400 4864 4224 4864
WIRE 4704 4864 4704 4768
WIRE 4704 4864 4400 4864
WIRE -992 4896 -992 4848
WIRE -992 4896 -1600 4896
WIRE -848 4896 -992 4896
WIRE -704 4896 -704 4768
WIRE -704 4896 -848 4896
WIRE -496 4896 -496 4848
WIRE -496 4896 -704 4896
WIRE -352 4896 -496 4896
WIRE -208 4896 -208 4768
WIRE -208 4896 -352 4896
WIRE 304 4912 304 4864
WIRE 1008 4912 1008 4432
WIRE 1520 4912 1520 4448
WIRE 2016 4912 2016 4864
WIRE 2720 4912 2720 4672
WIRE 3232 4912 3232 4560
WIRE 3584 4912 3584 4864
WIRE 4288 4912 4288 4672
WIRE 4800 4912 4800 4560
WIRE -848 4928 -848 4896
WIRE -352 4928 -352 4896
WIRE 1008 5072 1520 4912
WIRE 1520 5072 1008 4912
WIRE 2720 5072 3232 4912
WIRE 3232 5072 2720 4912
WIRE 4288 5072 4800 4912
WIRE 4800 5072 4288 4912
WIRE -1472 5104 -1536 5104
WIRE -992 5104 -1392 5104
WIRE -704 5104 -992 5104
WIRE -496 5104 -704 5104
WIRE -208 5104 -496 5104
WIRE 400 5120 304 5120
WIRE 672 5120 480 5120
WIRE 944 5120 672 5120
WIRE 1120 5120 944 5120
WIRE 1424 5120 1120 5120
WIRE 672 5136 672 5120
WIRE 2112 5136 2016 5136
WIRE 2384 5136 2192 5136
WIRE 2512 5136 2384 5136
WIRE 2832 5136 2512 5136
WIRE 3136 5136 2832 5136
WIRE 3680 5136 3584 5136
WIRE 3952 5136 3760 5136
WIRE 4080 5136 3952 5136
WIRE 4400 5136 4080 5136
WIRE 4704 5136 4400 5136
WIRE 944 5184 944 5120
WIRE 2832 5184 2832 5136
WIRE 4400 5184 4400 5136
WIRE 1424 5216 1424 5120
WIRE 672 5232 672 5216
WIRE 800 5232 672 5232
WIRE 880 5232 800 5232
WIRE 2384 5232 2384 5136
WIRE 3952 5232 3952 5136
WIRE 1120 5264 1120 5120
WIRE 3136 5264 3136 5136
WIRE 4704 5264 4704 5136
WIRE -704 5280 -704 5104
WIRE -208 5280 -208 5104
WIRE 2272 5280 2272 4384
WIRE 2320 5280 2272 5280
WIRE 3840 5280 3840 4384
WIRE 3888 5280 3840 5280
WIRE 1008 5312 1008 5072
WIRE 1056 5312 1008 5312
WIRE 1424 5312 1424 5296
WIRE 1520 5312 1520 5072
WIRE 1520 5312 1424 5312
WIRE 2832 5312 2832 5264
WIRE 2976 5312 2832 5312
WIRE 3072 5312 2976 5312
WIRE 4400 5312 4400 5264
WIRE 4544 5312 4400 5312
WIRE 4640 5312 4544 5312
WIRE -992 5344 -992 5104
WIRE -496 5344 -496 5104
WIRE 2832 5360 2832 5312
WIRE 4400 5360 4400 5312
WIRE -1488 5392 -1536 5392
WIRE -1056 5392 -1488 5392
WIRE -704 5392 -704 5360
WIRE -656 5392 -704 5392
WIRE -560 5392 -656 5392
WIRE -208 5392 -208 5360
WIRE -144 5392 -208 5392
WIRE -96 5392 -144 5392
WIRE 800 5392 800 5232
WIRE 2512 5392 2512 5136
WIRE 4080 5392 4080 5136
WIRE 944 5408 944 5280
WIRE 1120 5408 1120 5360
WIRE 1120 5408 944 5408
WIRE 2976 5408 2976 5312
WIRE 3040 5408 2976 5408
WIRE 3136 5408 3136 5360
WIRE 3136 5408 3104 5408
WIRE 4544 5408 4544 5312
WIRE 4608 5408 4544 5408
WIRE 4704 5408 4704 5360
WIRE 4704 5408 4672 5408
WIRE 736 5440 304 5440
WIRE 1120 5440 1120 5408
WIRE 1424 5440 1424 5312
WIRE 1696 5440 1424 5440
WIRE 2448 5440 2016 5440
WIRE 3136 5440 3136 5408
WIRE 3232 5440 3232 5072
WIRE 3232 5440 3136 5440
WIRE 3408 5440 3584 4560
WIRE 3408 5440 3232 5440
WIRE 3584 5440 3408 4560
WIRE 3648 5440 3584 5440
WIRE 3808 5440 3728 5440
WIRE 4016 5440 3808 5440
WIRE 4704 5440 4704 5408
WIRE 4800 5440 4800 5072
WIRE 4800 5440 4704 5440
WIRE 4976 5440 4800 5440
WIRE -992 5472 -992 5440
WIRE -496 5472 -496 5440
WIRE 1328 5472 1264 5472
WIRE 1424 5472 1424 5440
WIRE 1424 5472 1392 5472
WIRE 2832 5472 2832 5440
WIRE 2832 5472 2656 5472
WIRE 4400 5472 4400 5440
WIRE 4400 5472 4224 5472
WIRE -800 5520 -864 5520
WIRE -704 5520 -704 5392
WIRE -704 5520 -736 5520
WIRE -304 5520 -368 5520
WIRE -208 5520 -208 5392
WIRE -208 5520 -240 5520
WIRE 1424 5520 1424 5472
WIRE 2832 5520 2832 5472
WIRE 4400 5520 4400 5472
WIRE 672 5552 672 5232
WIRE 3808 5552 3808 5440
WIRE -704 5568 -704 5520
WIRE -208 5568 -208 5520
WIRE 1120 5568 1120 5520
WIRE 1264 5568 1264 5472
WIRE 1264 5568 1120 5568
WIRE 1360 5568 1264 5568
WIRE 2720 5568 2720 5072
WIRE 2768 5568 2720 5568
WIRE 4288 5568 4288 5072
WIRE 4336 5568 4288 5568
WIRE 3136 5584 3136 5440
WIRE 4704 5584 4704 5440
WIRE 560 5600 560 4720
WIRE 608 5600 560 5600
WIRE 2656 5600 2656 5472
WIRE 4224 5600 4224 5472
WIRE -992 5616 -992 5552
WIRE -864 5616 -864 5520
WIRE -864 5616 -992 5616
WIRE -768 5616 -864 5616
WIRE -496 5616 -496 5552
WIRE -368 5616 -368 5520
WIRE -368 5616 -496 5616
WIRE -272 5616 -368 5616
WIRE 1120 5616 1120 5568
WIRE 2384 5648 2384 5328
WIRE 2512 5648 2512 5488
WIRE 2512 5648 2384 5648
WIRE 2592 5648 2512 5648
WIRE 3952 5648 3952 5328
WIRE 4080 5648 4080 5488
WIRE 4080 5648 3952 5648
WIRE 4160 5648 4080 5648
WIRE -992 5664 -992 5616
WIRE -496 5664 -496 5616
WIRE 2384 5664 2384 5648
WIRE 3952 5664 3952 5648
WIRE 672 5744 672 5648
WIRE 672 5744 304 5744
WIRE 800 5744 800 5488
WIRE 800 5744 672 5744
WIRE 1120 5744 1120 5696
WIRE 1120 5744 800 5744
WIRE 1424 5744 1424 5616
WIRE 1424 5744 1120 5744
WIRE 2384 5760 2384 5744
WIRE 2384 5760 2016 5760
WIRE 2656 5760 2656 5696
WIRE 2656 5760 2384 5760
WIRE 2832 5760 2832 5616
WIRE 2832 5760 2656 5760
WIRE 3136 5760 3136 5664
WIRE 3136 5760 2832 5760
WIRE 3808 5760 3808 5616
WIRE 3808 5760 3584 5760
WIRE 3952 5760 3952 5744
WIRE 3952 5760 3808 5760
WIRE 4224 5760 4224 5696
WIRE 4224 5760 3952 5760
WIRE 4400 5760 4400 5616
WIRE 4400 5760 4224 5760
WIRE 4704 5760 4704 5664
WIRE 4704 5760 4400 5760
WIRE -992 5792 -992 5744
WIRE -992 5792 -1600 5792
WIRE -848 5792 -992 5792
WIRE -704 5792 -704 5664
WIRE -704 5792 -848 5792
WIRE -496 5792 -496 5744
WIRE -496 5792 -704 5792
WIRE -352 5792 -496 5792
WIRE -208 5792 -208 5664
WIRE -208 5792 -352 5792
WIRE 304 5792 304 5744
WIRE 2016 5808 2016 5760
WIRE 3584 5808 3584 5760
WIRE -848 5824 -848 5792
WIRE -352 5824 -352 5792
WIRE -1472 5952 -1536 5952
WIRE -992 5952 -1392 5952
WIRE -704 5952 -992 5952
WIRE -256 5952 -704 5952
WIRE 32 5952 -256 5952
WIRE 208 5952 32 5952
WIRE 496 5952 208 5952
WIRE -704 6128 -704 5952
WIRE 32 6128 32 5952
WIRE 496 6128 496 5952
WIRE -992 6192 -992 5952
WIRE -256 6192 -256 5952
WIRE 208 6192 208 5952
WIRE -1488 6240 -1536 6240
WIRE -1056 6240 -1488 6240
WIRE -704 6240 -704 6208
WIRE -656 6240 -704 6240
WIRE -560 6240 -656 6240
WIRE -448 6240 -496 6240
WIRE -384 6240 -448 6240
WIRE -320 6240 -384 6240
WIRE 32 6240 32 6208
WIRE 96 6240 32 6240
WIRE 144 6240 96 6240
WIRE 496 6240 496 6208
WIRE 560 6240 496 6240
WIRE 608 6240 560 6240
WIRE -384 6304 -384 6240
WIRE -992 6320 -992 6288
WIRE -256 6320 -256 6288
WIRE 208 6320 208 6288
WIRE -800 6368 -864 6368
WIRE -704 6368 -704 6240
WIRE -704 6368 -736 6368
WIRE -64 6368 -128 6368
WIRE 32 6368 32 6240
WIRE 32 6368 0 6368
WIRE 400 6368 336 6368
WIRE 496 6368 496 6240
WIRE 496 6368 464 6368
WIRE -448 6400 -448 6240
WIRE -704 6416 -704 6368
WIRE 32 6416 32 6368
WIRE 496 6416 496 6368
WIRE -992 6464 -992 6400
WIRE -864 6464 -864 6368
WIRE -864 6464 -992 6464
WIRE -768 6464 -864 6464
WIRE -384 6464 -384 6384
WIRE -256 6464 -256 6400
WIRE -128 6464 -128 6368
WIRE -128 6464 -256 6464
WIRE -32 6464 -128 6464
WIRE 208 6464 208 6400
WIRE 336 6464 336 6368
WIRE 336 6464 208 6464
WIRE 432 6464 336 6464
WIRE -992 6512 -992 6464
WIRE -256 6512 -256 6464
WIRE 208 6512 208 6464
WIRE -1536 6640 -1600 6640
WIRE -992 6640 -992 6592
WIRE -992 6640 -1536 6640
WIRE -832 6640 -992 6640
WIRE -704 6640 -704 6512
WIRE -704 6640 -832 6640
WIRE -448 6640 -448 6464
WIRE -448 6640 -704 6640
WIRE -384 6640 -384 6544
WIRE -384 6640 -448 6640
WIRE -80 6640 -384 6640
WIRE 208 6640 208 6592
WIRE 208 6640 -80 6640
WIRE 496 6640 496 6512
WIRE 496 6640 208 6640
WIRE 672 6640 496 6640
WIRE -1536 6672 -1536 6640
WIRE 32 6800 32 6512
WIRE -832 6816 -832 6640
WIRE -80 6848 -80 6640
WIRE -32 6848 -80 6848
WIRE -80 6928 -80 6848
WIRE -64 6928 -80 6928
WIRE 32 6928 32 6896
WIRE 32 6928 0 6928
WIRE -832 7072 -832 6896
WIRE -704 7072 -832 7072
WIRE -256 7072 -256 6592
WIRE -256 7072 -624 7072
WIRE 32 7072 32 6928
WIRE 32 7072 -256 7072
WIRE 112 7072 32 7072
FLAG -1168 3920 0
FLAG -1168 3792 VCC
FLAG -736 3920 0
FLAG -736 3808 DATA
FLAG -848 4928 0
FLAG -1536 4208 VCC
FLAG -352 4928 0
FLAG -1488 4496 CLK
FLAG -656 4496 EN
FLAG 304 4912 0
FLAG 304 4240 VCC
FLAG 304 5792 0
FLAG 304 5120 VCC
FLAG 304 5440 _D
FLAG 304 4560 D
FLAG 304 4160 DCLK
FLAG -848 5824 0
FLAG -1536 5104 VCC
FLAG -352 5824 0
FLAG -1488 5392 DATA
FLAG -656 5392 _D
FLAG -144 5392 D
FLAG -560 3920 0
FLAG -560 3808 CLK
FLAG -144 4496 _EN
FLAG 1696 5440 D0
FLAG 1696 4560 _D0
FLAG 2016 5808 0
FLAG 2016 5136 VCC
FLAG 2016 5440 _D
FLAG 2016 4160 DCLK
FLAG 3408 5440 D1
FLAG 2016 4912 0
FLAG 2016 4240 VCC
FLAG 2016 4560 D
FLAG 3408 4560 _D1
FLAG -1536 5952 VCC
FLAG -1536 6672 0
FLAG -1488 6240 CLK
FLAG -656 6240 _CLK
FLAG 96 6240 _DCLK
FLAG 3584 5808 0
FLAG 3584 5136 VCC
FLAG 3584 4160 DCLK
FLAG 4976 5440 D2
FLAG 3584 4912 0
FLAG 3584 4240 VCC
FLAG 4976 4560 _D2
FLAG 560 6240 DCLK
SYMBOL voltage -1168 3808 R0
WINDOW 123 0 0 Left 0
WINDOW 39 0 0 Left 0
SYMATTR InstName VCC
SYMATTR Value {VCC}
SYMBOL voltage -736 3824 R0
WINDOW 123 -77 30 VRight 2
WINDOW 39 0 0 Left 0
WINDOW 0 -51 28 VRight 2
WINDOW 3 647 148 Right 2
SYMATTR Value2 AC 5
SYMATTR InstName V_BIT5
SYMATTR Value PULSE(0 {VCC} 0 {rise} {rise} {1/freq/1.5-rise} {1/freq/0.75} {256*reps})
SYMBOL Digital\\and 1056 3536 R0
SYMATTR InstName A1
SYMBOL Digital\\and 1056 3760 R0
SYMATTR InstName A2
SYMBOL Digital\\or 864 3552 R0
SYMATTR InstName A3
SYMBOL Digital\\or 864 3664 R0
SYMATTR InstName A4
SYMBOL Digital\\or 864 3824 R0
SYMATTR InstName A5
SYMBOL Digital\\or 864 3952 R0
SYMATTR InstName A6
SYMBOL Digital\\inv 720 3968 R270
SYMATTR InstName A7
SYMBOL npn -768 4672 R0
SYMATTR InstName Q190
SYMATTR Value 2N3904
SYMBOL schottky -800 4640 R270
WINDOW 0 32 32 VTop 2
WINDOW 3 0 32 VBottom 2
SYMATTR InstName D61
SYMATTR Value BAT54
SYMATTR Description Diode
SYMATTR Type diode
SYMBOL res -720 4368 R0
SYMATTR InstName R428
SYMATTR Value {Rout_pull}
SYMBOL res -1488 4224 R270
WINDOW 0 32 56 VTop 2
WINDOW 3 0 56 VBottom 2
SYMATTR InstName R430
SYMATTR Value 1m
SYMBOL npn -1056 4448 R0
SYMATTR InstName Q191
SYMATTR Value 2N3904
SYMBOL res -1008 4560 R0
SYMATTR InstName R433
SYMATTR Value {Rin*2}
SYMBOL res -1008 4752 R0
SYMATTR InstName R434
SYMATTR Value {Rin}
SYMBOL npn -272 4672 R0
SYMATTR InstName Q192
SYMATTR Value 2N3904
SYMBOL schottky -304 4640 R270
WINDOW 0 32 32 VTop 2
WINDOW 3 0 32 VBottom 2
SYMATTR InstName D62
SYMATTR Value BAT54
SYMATTR Description Diode
SYMATTR Type diode
SYMBOL res -224 4368 R0
SYMATTR InstName R427
SYMATTR Value {Rout_pull}
SYMBOL npn -560 4448 R0
SYMATTR InstName Q193
SYMATTR Value 2N3904
SYMBOL res -512 4560 R0
SYMATTR InstName R429
SYMATTR Value {Rin*2}
SYMBOL res -512 4752 R0
SYMATTR InstName R431
SYMATTR Value {Rin}
SYMBOL npn 1360 4640 R0
SYMATTR InstName Q1
SYMATTR Value 2N3904
SYMBOL schottky 1328 4608 R270
WINDOW 0 32 32 VTop 2
WINDOW 3 0 32 VBottom 2
SYMATTR InstName D10
SYMATTR Value BAT54
SYMATTR Description Diode
SYMATTR Type diode
SYMBOL res 384 4256 R270
WINDOW 0 32 56 VTop 2
WINDOW 3 0 56 VBottom 2
SYMATTR InstName R3
SYMATTR Value 1m
SYMBOL npn 1056 4384 R0
SYMATTR InstName Q2
SYMATTR Value 2N3904
SYMBOL res 1408 4320 R0
SYMATTR InstName R37
SYMATTR Value {Rout_pull}
SYMBOL res 1104 4544 R0
SYMATTR InstName R38
SYMATTR Value {Rin*2}
SYMBOL res 1104 4720 R0
SYMATTR InstName R40
SYMATTR Value {Rin}
SYMBOL npn 1360 5520 R0
SYMATTR InstName Q3
SYMATTR Value 2N3904
SYMBOL schottky 1328 5488 R270
WINDOW 0 32 32 VTop 2
WINDOW 3 0 32 VBottom 2
SYMATTR InstName D1
SYMATTR Value BAT54
SYMATTR Description Diode
SYMATTR Type diode
SYMBOL npn 1056 5264 R0
SYMATTR InstName Q4
SYMATTR Value 2N3904
SYMBOL res 1408 5200 R0
SYMATTR InstName R4
SYMATTR Value {Rout_pull}
SYMBOL res 1104 5424 R0
SYMATTR InstName R5
SYMATTR Value {Rin*2}
SYMBOL res 1104 5600 R0
SYMATTR InstName R6
SYMATTR Value {Rin}
SYMBOL npn 880 4304 R0
SYMATTR InstName Q5
SYMATTR Value 2N3904
SYMBOL pnp 736 4608 M180
SYMATTR InstName Q6
SYMATTR Value 2N3906
SYMBOL pnp 608 4768 M180
SYMATTR InstName Q7
SYMATTR Value 2N3906
SYMBOL res 384 5136 R270
WINDOW 0 32 56 VTop 2
WINDOW 3 0 56 VBottom 2
SYMATTR InstName R2
SYMATTR Value 1m
SYMBOL npn 880 5184 R0
SYMATTR InstName Q8
SYMATTR Value 2N3904
SYMBOL pnp 736 5488 M180
SYMATTR InstName Q9
SYMATTR Value 2N3906
SYMBOL pnp 608 5648 M180
SYMATTR InstName Q10
SYMATTR Value 2N3906
SYMBOL res 656 5120 R0
SYMATTR InstName R7
SYMATTR Value {Rc_up}
SYMBOL res 656 4240 R0
SYMATTR InstName R8
SYMATTR Value {Rc_up}
SYMBOL npn -768 5568 R0
SYMATTR InstName Q11
SYMATTR Value 2N3904
SYMBOL schottky -800 5536 R270
WINDOW 0 32 32 VTop 2
WINDOW 3 0 32 VBottom 2
SYMATTR InstName D2
SYMATTR Value BAT54
SYMATTR Description Diode
SYMATTR Type diode
SYMBOL res -720 5264 R0
SYMATTR InstName R9
SYMATTR Value {Rout_pull}
SYMBOL res -1488 5120 R270
WINDOW 0 32 56 VTop 2
WINDOW 3 0 56 VBottom 2
SYMATTR InstName R10
SYMATTR Value 1m
SYMBOL npn -1056 5344 R0
SYMATTR InstName Q12
SYMATTR Value 2N3904
SYMBOL res -1008 5456 R0
SYMATTR InstName R13
SYMATTR Value {Rin*2}
SYMBOL res -1008 5648 R0
SYMATTR InstName R14
SYMATTR Value {Rin}
SYMBOL npn -272 5568 R0
SYMATTR InstName Q13
SYMATTR Value 2N3904
SYMBOL schottky -304 5536 R270
WINDOW 0 32 32 VTop 2
WINDOW 3 0 32 VBottom 2
SYMATTR InstName D3
SYMATTR Value BAT54
SYMATTR Description Diode
SYMATTR Type diode
SYMBOL res -224 5264 R0
SYMATTR InstName R15
SYMATTR Value {Rout_pull}
SYMBOL npn -560 5344 R0
SYMATTR InstName Q14
SYMATTR Value 2N3904
SYMBOL res -512 5456 R0
SYMATTR InstName R16
SYMATTR Value {Rin*2}
SYMBOL res -512 5648 R0
SYMATTR InstName R17
SYMATTR Value {Rin}
SYMBOL voltage -560 3824 R0
WINDOW 123 -77 30 VRight 2
WINDOW 39 0 0 Left 0
WINDOW 0 -51 28 VRight 2
WINDOW 3 521 -129 Right 2
SYMATTR Value2 AC 5
SYMATTR InstName V_BIT1
SYMATTR Value PULSE(0 {VCC} {1/freq/4} {rise} {rise} {1/freq/2-rise} {1/freq} {128*reps})
SYMBOL schottky 3104 5424 M270
WINDOW 0 32 32 VTop 2
WINDOW 3 0 32 VBottom 2
SYMATTR InstName D5
SYMATTR Value BAT54
SYMATTR Description Diode
SYMATTR Type diode
SYMBOL res 3120 5680 M180
WINDOW 0 36 76 Left 2
WINDOW 3 36 40 Left 2
SYMATTR InstName R19
SYMATTR Value {Rout_pull}
SYMBOL res 2816 5456 M180
WINDOW 0 36 76 Left 2
WINDOW 3 36 40 Left 2
SYMATTR InstName R20
SYMATTR Value {Rin*2}
SYMBOL res 2816 5280 M180
WINDOW 0 36 76 Left 2
WINDOW 3 36 40 Left 2
SYMATTR InstName R21
SYMATTR Value {Rin}
SYMBOL res 2096 5120 M90
WINDOW 0 0 56 VBottom 2
WINDOW 3 32 56 VTop 2
SYMATTR InstName R22
SYMATTR Value 1m
SYMBOL res 2368 5760 M180
WINDOW 0 36 76 Left 2
WINDOW 3 36 40 Left 2
SYMATTR InstName R23
SYMATTR Value {Rc_up}
SYMBOL pnp 3072 5360 M180
SYMATTR InstName Q25
SYMATTR Value 2N3906
SYMBOL pnp 2768 5616 M180
SYMATTR InstName Q17
SYMATTR Value 2N3906
SYMBOL pnp 2592 5696 M180
SYMATTR InstName Q18
SYMATTR Value 2N3906
SYMBOL npn 2320 5232 R0
SYMATTR InstName Q22
SYMATTR Value 2N3904
SYMBOL npn 2448 5392 R0
SYMATTR InstName Q23
SYMATTR Value 2N3904
SYMBOL schottky 3104 4528 M270
WINDOW 0 32 32 VTop 2
WINDOW 3 0 32 VBottom 2
SYMATTR InstName D4
SYMATTR Value BAT54
SYMATTR Description Diode
SYMATTR Type diode
SYMBOL res 3120 4784 M180
WINDOW 0 36 76 Left 2
WINDOW 3 36 40 Left 2
SYMATTR InstName R1
SYMATTR Value {Rout_pull}
SYMBOL res 2816 4560 M180
WINDOW 0 36 76 Left 2
WINDOW 3 36 40 Left 2
SYMATTR InstName R11
SYMATTR Value {Rin*2}
SYMBOL res 2816 4384 M180
WINDOW 0 36 76 Left 2
WINDOW 3 36 40 Left 2
SYMATTR InstName R12
SYMATTR Value {Rin}
SYMBOL res 2096 4224 M90
WINDOW 0 0 56 VBottom 2
WINDOW 3 32 56 VTop 2
SYMATTR InstName R18
SYMATTR Value 1m
SYMBOL res 2368 4864 M180
WINDOW 0 36 76 Left 2
WINDOW 3 36 40 Left 2
SYMATTR InstName R24
SYMATTR Value {Rc_up}
SYMBOL pnp 3072 4464 M180
SYMATTR InstName Q15
SYMATTR Value 2N3906
SYMBOL pnp 2768 4720 M180
SYMATTR InstName Q16
SYMATTR Value 2N3906
SYMBOL pnp 2592 4800 M180
SYMATTR InstName Q19
SYMATTR Value 2N3906
SYMBOL npn 2320 4336 R0
SYMATTR InstName Q20
SYMATTR Value 2N3904
SYMBOL npn 2448 4512 R0
SYMATTR InstName Q21
SYMATTR Value 2N3904
SYMBOL npn -768 6416 R0
SYMATTR InstName Q24
SYMATTR Value 2N3904
SYMBOL schottky -800 6384 R270
WINDOW 0 32 32 VTop 2
WINDOW 3 0 32 VBottom 2
SYMATTR InstName D6
SYMATTR Value BAT54
SYMATTR Description Diode
SYMATTR Type diode
SYMBOL res -720 6112 R0
SYMATTR InstName R25
SYMATTR Value {Rout_pull}
SYMBOL res -1488 5968 R270
WINDOW 0 32 56 VTop 2
WINDOW 3 0 56 VBottom 2
SYMATTR InstName R26
SYMATTR Value 1m
SYMBOL npn -1056 6192 R0
SYMATTR InstName Q26
SYMATTR Value 2N3904
SYMBOL res -1008 6304 R0
SYMATTR InstName R27
SYMATTR Value {Rin*2}
SYMBOL res -1008 6496 R0
SYMATTR InstName R28
SYMATTR Value {Rin}
SYMBOL npn -32 6416 R0
SYMATTR InstName Q27
SYMATTR Value 2N3904
SYMBOL schottky -64 6384 R270
WINDOW 0 32 32 VTop 2
WINDOW 3 0 32 VBottom 2
SYMATTR InstName D7
SYMATTR Value BAT54
SYMATTR Description Diode
SYMATTR Type diode
SYMBOL res 16 6112 R0
SYMATTR InstName R29
SYMATTR Value {Rout_pull}
SYMBOL npn -320 6192 R0
SYMATTR InstName Q28
SYMATTR Value 2N3904
SYMBOL res -272 6304 R0
SYMATTR InstName R30
SYMATTR Value {Rin}
SYMBOL res -272 6496 R0
SYMATTR InstName R31
SYMATTR Value {Rin}
SYMBOL cap -496 6224 R90
WINDOW 0 0 32 VBottom 2
WINDOW 3 32 32 VTop 2
SYMATTR InstName C1
SYMATTR Value 47p
SYMBOL schottky -432 6464 R180
WINDOW 0 24 64 Left 2
WINDOW 3 24 0 Left 2
SYMATTR InstName D8
SYMATTR Value BAT54
SYMATTR Description Diode
SYMATTR Type diode
SYMBOL res -400 6288 R0
SYMATTR InstName R32
SYMATTR Value 500
SYMBOL ind -400 6448 R0
SYMATTR InstName L1
SYMATTR Value 10µ
SYMBOL schottky 4672 5424 M270
WINDOW 0 32 32 VTop 2
WINDOW 3 0 32 VBottom 2
SYMATTR InstName D9
SYMATTR Value BAT54
SYMATTR Description Diode
SYMATTR Type diode
SYMBOL res 4688 5680 M180
WINDOW 0 36 76 Left 2
WINDOW 3 36 40 Left 2
SYMATTR InstName R33
SYMATTR Value {Rout_pull}
SYMBOL res 4384 5456 M180
WINDOW 0 36 76 Left 2
WINDOW 3 36 40 Left 2
SYMATTR InstName R34
SYMATTR Value {Rin*2}
SYMBOL res 4384 5280 M180
WINDOW 0 36 76 Left 2
WINDOW 3 36 40 Left 2
SYMATTR InstName R35
SYMATTR Value {Rin}
SYMBOL res 3664 5120 M90
WINDOW 0 0 56 VBottom 2
WINDOW 3 32 56 VTop 2
SYMATTR InstName R36
SYMATTR Value 1m
SYMBOL res 3936 5760 M180
WINDOW 0 36 76 Left 2
WINDOW 3 36 40 Left 2
SYMATTR InstName R39
SYMATTR Value {Rc_up}
SYMBOL pnp 4640 5360 M180
SYMATTR InstName Q29
SYMATTR Value 2N3906
SYMBOL pnp 4336 5616 M180
SYMATTR InstName Q30
SYMATTR Value 2N3906
SYMBOL pnp 4160 5696 M180
SYMATTR InstName Q31
SYMATTR Value 2N3906
SYMBOL npn 3888 5232 R0
SYMATTR InstName Q32
SYMATTR Value 2N3904
SYMBOL npn 4016 5392 R0
SYMATTR InstName Q33
SYMATTR Value 2N3904
SYMBOL schottky 4672 4528 M270
WINDOW 0 32 32 VTop 2
WINDOW 3 0 32 VBottom 2
SYMATTR InstName D11
SYMATTR Value BAT54
SYMATTR Description Diode
SYMATTR Type diode
SYMBOL res 4688 4784 M180
WINDOW 0 36 76 Left 2
WINDOW 3 36 40 Left 2
SYMATTR InstName R41
SYMATTR Value {Rout_pull}
SYMBOL res 4384 4560 M180
WINDOW 0 36 76 Left 2
WINDOW 3 36 40 Left 2
SYMATTR InstName R42
SYMATTR Value {Rin*2}
SYMBOL res 4384 4384 M180
WINDOW 0 36 76 Left 2
WINDOW 3 36 40 Left 2
SYMATTR InstName R43
SYMATTR Value {Rin}
SYMBOL res 3664 4224 M90
WINDOW 0 0 56 VBottom 2
WINDOW 3 32 56 VTop 2
SYMATTR InstName R44
SYMATTR Value 1m
SYMBOL res 3936 4864 M180
WINDOW 0 36 76 Left 2
WINDOW 3 36 40 Left 2
SYMATTR InstName R45
SYMATTR Value {Rc_up}
SYMBOL pnp 4640 4464 M180
SYMATTR InstName Q34
SYMATTR Value 2N3906
SYMBOL pnp 4336 4720 M180
SYMATTR InstName Q35
SYMATTR Value 2N3906
SYMBOL pnp 4160 4800 M180
SYMATTR InstName Q36
SYMATTR Value 2N3906
SYMBOL npn 3888 4336 R0
SYMATTR InstName Q37
SYMATTR Value 2N3904
SYMBOL npn 4016 4512 R0
SYMATTR InstName Q38
SYMATTR Value 2N3904
SYMBOL res 3728 4544 R90
WINDOW 0 0 56 VBottom 2
WINDOW 3 32 56 VTop 2
SYMATTR InstName R46
SYMATTR Value 1k
SYMBOL res 3744 5424 R90
WINDOW 0 0 56 VBottom 2
WINDOW 3 32 56 VTop 2
SYMATTR InstName R47
SYMATTR Value 1k
SYMBOL cap 3792 5552 R0
SYMATTR InstName C2
SYMATTR Value 22p
SYMBOL cap 3792 4656 R0
SYMATTR InstName C3
SYMATTR Value 22p
SYMBOL voltage -832 6800 R0
SYMATTR InstName V1
SYMATTR Value 2.5
SYMBOL res -608 7056 R90
WINDOW 0 0 56 VBottom 2
WINDOW 3 32 56 VTop 2
SYMATTR InstName R48
SYMATTR Value 10
SYMBOL npn -32 6800 R0
SYMATTR InstName Q39
SYMATTR Value 2N3904
SYMBOL schottky -64 6944 R270
WINDOW 0 32 32 VTop 2
WINDOW 3 0 32 VBottom 2
SYMATTR InstName D12
SYMATTR Value BAT54
SYMATTR Description Diode
SYMATTR Type diode
SYMBOL npn 432 6416 R0
SYMATTR InstName Q40
SYMATTR Value 2N3904
SYMBOL schottky 400 6384 R270
WINDOW 0 32 32 VTop 2
WINDOW 3 0 32 VBottom 2
SYMATTR InstName D13
SYMATTR Value BAT54
SYMATTR Description Diode
SYMATTR Type diode
SYMBOL res 480 6112 R0
SYMATTR InstName R49
SYMATTR Value {Rout_pull}
SYMBOL npn 144 6192 R0
SYMATTR InstName Q41
SYMATTR Value 2N3904
SYMBOL res 192 6304 R0
SYMATTR InstName R50
SYMATTR Value {Rin}
SYMBOL res 192 6496 R0
SYMATTR InstName R51
SYMATTR Value {Rin}
TEXT -1480 4040 Left 2 !.tran {32*reps/freq}
TEXT -1480 3768 Left 2 !.param VCC=5
TEXT -1480 3800 Left 2 !.param freq=10mega
TEXT -1480 3832 Left 2 !.param rise=1n
TEXT -1480 3864 Left 2 !.param reps=1
TEXT 512 4016 Left 2 ;PAR_LD
TEXT 528 3992 Left 2 ;PAR_D
TEXT 536 3888 Left 2 ;SHIFT
TEXT -1480 3928 Left 2 !.param Rin=100
TEXT -1480 3960 Left 2 !.param Rout_pull=300
TEXT -1480 3992 Left 2 !.param Rin_ld = 1000
TEXT -1480 3896 Left 2 !.param Rc_up=1000
TEXT -1480 4080 Left 2 !.step temp -25 125 25
TEXT -1480 4112 Left 2 !.temp 125
TEXT -776 5912 Left 2 ;This is a temperature-compensated edge-generator
TEXT 56 6928 Left 2 ;Very high current (200mA) through this diode!!!!
