Version 4.1
SHEET 1 14868 7364
WIRE -528 32 -528 0
WIRE -528 128 -528 112
WIRE -2912 720 -3216 720
WIRE -3504 768 -3536 768
WIRE -3472 768 -3504 768
WIRE -3280 768 -3392 768
WIRE -2912 816 -2912 720
WIRE -2608 816 -2912 816
WIRE -16 960 -80 960
WIRE 464 960 64 960
WIRE 976 960 464 960
WIRE 1152 960 976 960
WIRE 1776 960 1712 960
WIRE 2256 960 1856 960
WIRE 2768 960 2256 960
WIRE 2944 960 2768 960
WIRE 3488 960 3424 960
WIRE 3968 960 3568 960
WIRE 4480 960 3968 960
WIRE 4656 960 4480 960
WIRE 5056 960 4992 960
WIRE 5536 960 5136 960
WIRE 6048 960 5536 960
WIRE 6224 960 6048 960
WIRE -3392 976 -3456 976
WIRE -3216 976 -3312 976
WIRE -2736 976 -3216 976
WIRE -2528 976 -2736 976
WIRE -2000 976 -2528 976
WIRE -1632 976 -2000 976
WIRE 976 976 976 960
WIRE 2768 976 2768 960
WIRE 4480 976 4480 960
WIRE 6048 976 6048 960
WIRE -2000 992 -2000 976
WIRE 464 992 464 960
WIRE 2256 992 2256 960
WIRE 3968 992 3968 960
WIRE 5536 992 5536 960
WIRE -2736 1008 -2736 976
WIRE -2912 1072 -2912 816
WIRE -2608 1072 -2608 816
WIRE -2528 1088 -2528 976
WIRE 976 1088 976 1056
WIRE 2768 1088 2768 1056
WIRE 4480 1088 4480 1056
WIRE 6048 1088 6048 1056
WIRE -2000 1104 -2000 1072
WIRE 352 1136 256 1136
WIRE 672 1136 352 1136
WIRE 816 1136 752 1136
WIRE 912 1136 816 1136
WIRE 2144 1136 2048 1136
WIRE 2464 1136 2144 1136
WIRE 2608 1136 2544 1136
WIRE 2704 1136 2608 1136
WIRE 3856 1136 3760 1136
WIRE 4176 1136 3856 1136
WIRE 4320 1136 4256 1136
WIRE 4416 1136 4320 1136
WIRE 5424 1136 5328 1136
WIRE 5744 1136 5424 1136
WIRE 5888 1136 5824 1136
WIRE 5984 1136 5888 1136
WIRE -2304 1152 -2368 1152
WIRE -2160 1152 -2224 1152
WIRE -2064 1152 -2160 1152
WIRE -1632 1152 -1632 976
WIRE -3216 1216 -3216 976
WIRE -2608 1216 -2608 1152
WIRE 256 1216 256 1136
WIRE 464 1216 464 1072
WIRE 2048 1216 2048 1136
WIRE 2256 1216 2256 1072
WIRE 3760 1216 3760 1136
WIRE 3968 1216 3968 1072
WIRE 5328 1216 5328 1136
WIRE 5536 1216 5536 1072
WIRE -2368 1232 -2368 1152
WIRE 816 1232 816 1136
WIRE 864 1232 816 1232
WIRE 976 1232 976 1184
WIRE 976 1232 928 1232
WIRE 2608 1232 2608 1136
WIRE 2656 1232 2608 1232
WIRE 2768 1232 2768 1184
WIRE 2768 1232 2720 1232
WIRE 4320 1232 4320 1136
WIRE 4368 1232 4320 1232
WIRE 4480 1232 4480 1184
WIRE 4480 1232 4432 1232
WIRE 5888 1232 5888 1136
WIRE 5936 1232 5888 1232
WIRE 6048 1232 6048 1184
WIRE 6048 1232 6000 1232
WIRE -2160 1248 -2160 1152
WIRE -2112 1248 -2160 1248
WIRE -2000 1248 -2000 1200
WIRE -2000 1248 -2048 1248
WIRE -3504 1264 -3536 1264
WIRE -3472 1264 -3504 1264
WIRE -3280 1264 -3392 1264
WIRE -128 1264 -160 1264
WIRE -96 1264 -128 1264
WIRE 192 1264 -16 1264
WIRE 352 1264 352 1136
WIRE 400 1264 352 1264
WIRE 1696 1264 1520 1264
WIRE 1984 1264 1776 1264
WIRE 2144 1264 2144 1136
WIRE 2192 1264 2144 1264
WIRE 3408 1264 3136 1264
WIRE 3696 1264 3488 1264
WIRE 3856 1264 3856 1136
WIRE 3904 1264 3856 1264
WIRE 4976 1264 4848 1264
WIRE 5264 1264 5056 1264
WIRE 5424 1264 5424 1136
WIRE 5472 1264 5424 1264
WIRE -3072 1280 -3088 1280
WIRE -2656 1280 -2992 1280
WIRE -2528 1280 -2528 1168
WIRE -2528 1280 -2560 1280
WIRE -2432 1280 -2528 1280
WIRE 976 1280 976 1232
WIRE 2768 1280 2768 1232
WIRE 4480 1280 4480 1232
WIRE 6048 1280 6048 1232
WIRE -2000 1296 -2000 1248
WIRE -2912 1360 -2912 1152
WIRE -2736 1376 -2736 1088
WIRE 2768 1408 2768 1360
WIRE 2864 1408 2768 1408
WIRE 3136 1408 3136 1264
WIRE 3136 1408 2864 1408
WIRE 4480 1408 4480 1360
WIRE 4576 1408 4480 1408
WIRE 4848 1408 4848 1264
WIRE 4848 1408 4576 1408
WIRE 6048 1408 6048 1360
WIRE 6144 1408 6048 1408
WIRE 6416 1408 6144 1408
WIRE -3216 1424 -3216 1312
WIRE -3088 1424 -3088 1280
WIRE -3088 1424 -3216 1424
WIRE -3072 1424 -3088 1424
WIRE -2960 1424 -2992 1424
WIRE -2832 1424 -2864 1424
WIRE -2800 1424 -2832 1424
WIRE -2000 1424 -2000 1376
WIRE -1728 1424 -2000 1424
WIRE -1632 1424 -1632 1232
WIRE -1632 1424 -1728 1424
WIRE 976 1424 976 1360
WIRE 1072 1424 976 1424
WIRE 1520 1424 1520 1264
WIRE 1520 1424 1072 1424
WIRE 976 1472 976 1424
WIRE 2768 1472 2768 1408
WIRE 4480 1472 4480 1408
WIRE 6048 1472 6048 1408
WIRE -2000 1488 -2000 1424
WIRE -2832 1568 -2832 1424
WIRE -1632 1584 -1632 1424
WIRE 880 1664 816 1664
WIRE 976 1664 976 1552
WIRE 976 1664 944 1664
WIRE 2672 1664 2608 1664
WIRE 2768 1664 2768 1552
WIRE 2768 1664 2736 1664
WIRE 4384 1664 4320 1664
WIRE 4480 1664 4480 1552
WIRE 4480 1664 4448 1664
WIRE 5952 1664 5888 1664
WIRE 6048 1664 6048 1552
WIRE 6048 1664 6016 1664
WIRE -2096 1680 -2160 1680
WIRE -2000 1680 -2000 1568
WIRE -2000 1680 -2032 1680
WIRE 976 1712 976 1664
WIRE 2768 1712 2768 1664
WIRE 4480 1712 4480 1664
WIRE 6048 1712 6048 1664
WIRE -2000 1728 -2000 1680
WIRE 464 1760 464 1312
WIRE 656 1760 464 1760
WIRE 816 1760 816 1664
WIRE 816 1760 736 1760
WIRE 912 1760 816 1760
WIRE 2256 1760 2256 1312
WIRE 2448 1760 2256 1760
WIRE 2608 1760 2608 1664
WIRE 2608 1760 2528 1760
WIRE 2704 1760 2608 1760
WIRE 3968 1760 3968 1312
WIRE 4160 1760 3968 1760
WIRE 4320 1760 4320 1664
WIRE 4320 1760 4240 1760
WIRE 4416 1760 4320 1760
WIRE 5536 1760 5536 1312
WIRE 5728 1760 5536 1760
WIRE 5888 1760 5888 1664
WIRE 5888 1760 5808 1760
WIRE 5984 1760 5888 1760
WIRE -2736 1776 -2736 1472
WIRE -2320 1776 -2736 1776
WIRE -2160 1776 -2160 1680
WIRE -2160 1776 -2240 1776
WIRE -2064 1776 -2160 1776
WIRE 256 1776 256 1312
WIRE 2048 1776 2048 1312
WIRE 3760 1776 3760 1312
WIRE 5328 1776 5328 1312
WIRE -2368 1840 -2368 1328
WIRE 976 1840 976 1808
WIRE 2768 1840 2768 1808
WIRE 4480 1840 4480 1808
WIRE 6048 1840 6048 1808
WIRE -2000 1856 -2000 1824
WIRE 256 1968 256 1856
WIRE 256 1968 -144 1968
WIRE 976 1968 976 1920
WIRE 976 1968 256 1968
WIRE 1152 1968 976 1968
WIRE 2048 1968 2048 1856
WIRE 2048 1968 1648 1968
WIRE 2768 1968 2768 1920
WIRE 2768 1968 2048 1968
WIRE 2944 1968 2768 1968
WIRE 3760 1968 3760 1856
WIRE 3760 1968 3360 1968
WIRE 4480 1968 4480 1920
WIRE 4480 1968 3760 1968
WIRE 4656 1968 4480 1968
WIRE 5328 1968 5328 1856
WIRE 5328 1968 4928 1968
WIRE 6048 1968 6048 1920
WIRE 6048 1968 5328 1968
WIRE 6224 1968 6048 1968
WIRE -2832 1984 -2832 1648
WIRE -2832 1984 -3520 1984
WIRE -2368 1984 -2368 1920
WIRE -2368 1984 -2832 1984
WIRE -2000 1984 -2000 1936
WIRE -2000 1984 -2368 1984
WIRE -1632 1984 -1632 1664
WIRE -1632 1984 -2000 1984
WIRE -144 2016 -144 1968
WIRE 1648 2016 1648 1968
WIRE 3360 2016 3360 1968
WIRE 4928 2016 4928 1968
WIRE -3520 2032 -3520 1984
WIRE 1168 2304 1104 2304
WIRE 1648 2304 1248 2304
WIRE 2160 2304 1648 2304
WIRE 2336 2304 2160 2304
WIRE 3312 2304 3248 2304
WIRE 3424 2304 3392 2304
WIRE 3616 2304 3424 2304
WIRE 3872 2304 3616 2304
WIRE 4048 2304 3872 2304
WIRE 4672 2304 4048 2304
WIRE 4848 2304 4672 2304
WIRE -992 2320 -1056 2320
WIRE -512 2320 -912 2320
WIRE 0 2320 -512 2320
WIRE 176 2320 0 2320
WIRE 2160 2320 2160 2304
WIRE 4672 2320 4672 2304
WIRE 0 2336 0 2320
WIRE 1648 2336 1648 2304
WIRE 3872 2336 3872 2304
WIRE 4048 2336 4048 2304
WIRE -512 2352 -512 2320
WIRE 3424 2368 3424 2304
WIRE 3616 2368 3616 2304
WIRE 8640 2368 8576 2368
WIRE 9120 2368 8720 2368
WIRE 9632 2368 9120 2368
WIRE 10016 2368 9632 2368
WIRE 10528 2368 10016 2368
WIRE 10832 2368 10528 2368
WIRE 11344 2368 10832 2368
WIRE 2160 2432 2160 2400
WIRE 3872 2432 3872 2416
WIRE 4672 2432 4672 2400
WIRE 0 2448 0 2416
WIRE 1248 2480 1152 2480
WIRE 1328 2480 1248 2480
WIRE 1440 2480 1328 2480
WIRE 1536 2480 1440 2480
WIRE 1856 2480 1536 2480
WIRE 2000 2480 1936 2480
WIRE 2096 2480 2000 2480
WIRE 3616 2480 3616 2448
WIRE 3616 2480 3552 2480
WIRE 3664 2480 3616 2480
WIRE 3808 2480 3664 2480
WIRE 4368 2480 4272 2480
WIRE 4512 2480 4448 2480
WIRE 4608 2480 4512 2480
WIRE -720 2496 -832 2496
WIRE -624 2496 -720 2496
WIRE -304 2496 -624 2496
WIRE -160 2496 -224 2496
WIRE -64 2496 -160 2496
WIRE 4272 2544 4272 2480
WIRE 1440 2560 1440 2480
WIRE 3664 2560 3664 2480
WIRE -720 2576 -720 2496
WIRE 2000 2576 2000 2480
WIRE 2048 2576 2000 2576
WIRE 2160 2576 2160 2528
WIRE 2160 2576 2112 2576
WIRE 4512 2576 4512 2480
WIRE 4560 2576 4512 2576
WIRE 4672 2576 4672 2528
WIRE 4672 2576 4624 2576
WIRE -160 2592 -160 2496
WIRE -112 2592 -160 2592
WIRE 0 2592 0 2544
WIRE 0 2592 -48 2592
WIRE 4208 2592 4160 2592
WIRE 896 2608 864 2608
WIRE 928 2608 896 2608
WIRE 1376 2608 1008 2608
WIRE 3120 2608 3088 2608
WIRE 3152 2608 3120 2608
WIRE 3600 2608 3232 2608
WIRE -1104 2624 -1136 2624
WIRE -1072 2624 -1104 2624
WIRE -784 2624 -992 2624
WIRE 2160 2624 2160 2576
WIRE 4672 2624 4672 2576
WIRE 9120 2624 9120 2368
WIRE 10016 2624 10016 2368
WIRE 10832 2624 10832 2368
WIRE 0 2640 0 2592
WIRE 1328 2672 1328 2480
WIRE 3552 2672 3552 2480
WIRE 8528 2672 8496 2672
WIRE 8560 2672 8528 2672
WIRE 8992 2672 8640 2672
WIRE 9056 2672 8992 2672
WIRE 9952 2672 9888 2672
WIRE 10768 2672 10704 2672
WIRE 9632 2688 9632 2368
WIRE 10528 2688 10528 2368
WIRE 11344 2688 11344 2368
WIRE 896 2720 864 2720
WIRE 928 2720 896 2720
WIRE 1264 2720 1008 2720
WIRE 3120 2720 3088 2720
WIRE 3152 2720 3120 2720
WIRE 3488 2720 3232 2720
WIRE 4048 2752 4048 2416
WIRE 3424 2800 3424 2448
WIRE 3424 2800 3376 2800
WIRE 3472 2800 3424 2800
WIRE 3984 2800 3472 2800
WIRE 9120 2800 9120 2720
WIRE 10016 2800 10016 2720
WIRE 10832 2800 10832 2720
WIRE 1248 2832 1248 2480
WIRE 3472 2832 3472 2800
WIRE 9632 2832 9632 2768
WIRE 9728 2832 9632 2832
WIRE 9888 2832 9888 2672
WIRE 9888 2832 9728 2832
WIRE 10528 2832 10528 2768
WIRE 10624 2832 10528 2832
WIRE 10704 2832 10704 2672
WIRE 10704 2832 10624 2832
WIRE 11344 2832 11344 2768
WIRE 11440 2832 11344 2832
WIRE 2160 2848 2160 2704
WIRE 2256 2848 2160 2848
WIRE 4672 2848 4672 2704
WIRE 4768 2848 4672 2848
WIRE 0 2864 0 2720
WIRE 96 2864 0 2864
WIRE 880 2880 848 2880
WIRE 912 2880 880 2880
WIRE 1184 2880 992 2880
WIRE 3104 2880 3072 2880
WIRE 3136 2880 3104 2880
WIRE 3408 2880 3216 2880
WIRE 1648 2912 1648 2416
WIRE -512 2928 -512 2432
WIRE 1536 2960 1536 2480
WIRE 1584 2960 1536 2960
WIRE -624 2976 -624 2496
WIRE -576 2976 -624 2976
WIRE 2160 2992 2160 2848
WIRE 4672 2992 4672 2848
WIRE -832 3008 -832 2496
WIRE 0 3008 0 2864
WIRE 1152 3008 1152 2480
WIRE 3376 3008 3376 2800
WIRE -1104 3056 -1136 3056
WIRE -1072 3056 -1104 3056
WIRE -896 3056 -992 3056
WIRE 880 3056 848 3056
WIRE 912 3056 880 3056
WIRE 1088 3056 992 3056
WIRE 3104 3056 3072 3056
WIRE 3136 3056 3104 3056
WIRE 3312 3056 3216 3056
WIRE 9536 3072 9472 3072
WIRE 9632 3072 9632 2832
WIRE 9632 3072 9600 3072
WIRE 10432 3072 10368 3072
WIRE 10528 3072 10528 2832
WIRE 10528 3072 10496 3072
WIRE 11248 3072 11184 3072
WIRE 11344 3072 11344 2832
WIRE 11344 3072 11312 3072
WIRE 2064 3104 2000 3104
WIRE 2160 3104 2160 3072
WIRE 2160 3104 2128 3104
WIRE 4576 3104 4512 3104
WIRE 4672 3104 4672 3072
WIRE 4672 3104 4640 3104
WIRE -96 3120 -160 3120
WIRE 0 3120 0 3088
WIRE 0 3120 -32 3120
WIRE 9632 3120 9632 3072
WIRE 10528 3120 10528 3072
WIRE 11344 3120 11344 3072
WIRE 2160 3152 2160 3104
WIRE 4672 3152 4672 3104
WIRE 0 3168 0 3120
WIRE 9120 3168 9120 2880
WIRE 9472 3168 9472 3072
WIRE 9472 3168 9120 3168
WIRE 9568 3168 9472 3168
WIRE 10016 3168 10016 2880
WIRE 10368 3168 10368 3072
WIRE 10368 3168 10016 3168
WIRE 10464 3168 10368 3168
WIRE 10832 3168 10832 2880
WIRE 11184 3168 11184 3072
WIRE 11184 3168 10832 3168
WIRE 11280 3168 11184 3168
WIRE 1648 3200 1648 3008
WIRE 1840 3200 1648 3200
WIRE 2000 3200 2000 3104
WIRE 2000 3200 1920 3200
WIRE 2096 3200 2000 3200
WIRE 3872 3200 3872 2528
WIRE 4048 3200 4048 2848
WIRE 4048 3200 3872 3200
WIRE 4160 3200 4160 2592
WIRE 4160 3200 4048 3200
WIRE 4352 3200 4160 3200
WIRE 4512 3200 4512 3104
WIRE 4512 3200 4432 3200
WIRE 4608 3200 4512 3200
WIRE -512 3216 -512 3024
WIRE -320 3216 -512 3216
WIRE -160 3216 -160 3120
WIRE -160 3216 -240 3216
WIRE -64 3216 -160 3216
WIRE 1152 3216 1152 3104
WIRE 1248 3216 1248 2928
WIRE 1328 3216 1328 2768
WIRE 1440 3216 1440 2656
WIRE 3376 3216 3376 3104
WIRE 3472 3216 3472 2928
WIRE 3552 3216 3552 2768
WIRE 3664 3216 3664 2656
WIRE -832 3232 -832 3104
WIRE -720 3232 -720 2672
WIRE 9120 3232 9120 3168
WIRE 10016 3232 10016 3168
WIRE 10832 3232 10832 3168
WIRE 4272 3248 4272 2640
WIRE 2160 3280 2160 3248
WIRE 3872 3280 3872 3200
WIRE 4672 3280 4672 3248
WIRE 8992 3280 8992 2672
WIRE 9056 3280 8992 3280
WIRE 9888 3280 9888 2832
WIRE 9952 3280 9888 3280
WIRE 10704 3280 10704 2832
WIRE 10768 3280 10704 3280
WIRE 0 3296 0 3264
WIRE 9120 3376 9120 3328
WIRE 9120 3376 8512 3376
WIRE 9632 3376 9632 3216
WIRE 9632 3376 9120 3376
WIRE 10016 3376 10016 3328
WIRE 10016 3376 9632 3376
WIRE 10528 3376 10528 3216
WIRE 10528 3376 10016 3376
WIRE 10832 3376 10832 3328
WIRE 10832 3376 10528 3376
WIRE 11344 3376 11344 3216
WIRE 11344 3376 10832 3376
WIRE 11520 3376 11344 3376
WIRE 1152 3408 1152 3296
WIRE 1152 3408 1040 3408
WIRE 1248 3408 1248 3296
WIRE 1248 3408 1152 3408
WIRE 1328 3408 1328 3296
WIRE 1328 3408 1248 3408
WIRE 1440 3408 1440 3296
WIRE 1440 3408 1328 3408
WIRE 2160 3408 2160 3360
WIRE 2160 3408 1440 3408
WIRE 2336 3408 2160 3408
WIRE 3376 3408 3376 3296
WIRE 3376 3408 3264 3408
WIRE 3472 3408 3472 3296
WIRE 3472 3408 3376 3408
WIRE 3552 3408 3552 3296
WIRE 3552 3408 3472 3408
WIRE 3664 3408 3664 3296
WIRE 3664 3408 3552 3408
WIRE 3872 3408 3872 3360
WIRE 3872 3408 3664 3408
WIRE 4272 3408 4272 3328
WIRE 4272 3408 3872 3408
WIRE 4672 3408 4672 3360
WIRE 4672 3408 4272 3408
WIRE 4848 3408 4672 3408
WIRE -832 3424 -832 3312
WIRE -832 3424 -1120 3424
WIRE -720 3424 -720 3312
WIRE -720 3424 -832 3424
WIRE 0 3424 0 3376
WIRE 0 3424 -720 3424
WIRE 176 3424 0 3424
WIRE 8512 3424 8512 3376
WIRE 1040 3456 1040 3408
WIRE 3264 3456 3264 3408
WIRE -1120 3472 -1120 3424
WIRE 8656 3664 8592 3664
WIRE 9648 3664 8736 3664
WIRE 10352 3664 9648 3664
WIRE 10960 3664 10352 3664
WIRE 11632 3664 10960 3664
WIRE 12288 3664 11632 3664
WIRE 12896 3664 12288 3664
WIRE 13568 3664 12896 3664
WIRE 14224 3664 13568 3664
WIRE 9648 3792 9648 3664
WIRE 10352 3792 10352 3664
WIRE 10960 3792 10960 3664
WIRE 11632 3792 11632 3664
WIRE 12288 3792 12288 3664
WIRE 12896 3792 12896 3664
WIRE 13568 3792 13568 3664
WIRE 14224 3792 14224 3664
WIRE 9584 3840 9472 3840
WIRE 10176 3840 10032 3840
WIRE 10288 3840 10176 3840
WIRE 10784 3840 10640 3840
WIRE 10896 3840 10784 3840
WIRE 11456 3840 11312 3840
WIRE 11568 3840 11456 3840
WIRE 12112 3840 11968 3840
WIRE 12224 3840 12112 3840
WIRE 12720 3840 12576 3840
WIRE 12832 3840 12720 3840
WIRE 13392 3840 13248 3840
WIRE 13504 3840 13392 3840
WIRE 14048 3840 13904 3840
WIRE 14160 3840 14048 3840
WIRE 1088 3888 1024 3888
WIRE 1232 3888 1168 3888
WIRE 1328 3888 1232 3888
WIRE 1408 3888 1328 3888
WIRE 1520 3888 1408 3888
WIRE 2080 3888 1520 3888
WIRE 2256 3888 2080 3888
WIRE -1024 3904 -1088 3904
WIRE -704 3904 -944 3904
WIRE -592 3904 -704 3904
WIRE -32 3904 -592 3904
WIRE 144 3904 -32 3904
WIRE 2080 3904 2080 3888
WIRE -32 3920 -32 3904
WIRE 1232 3920 1232 3888
WIRE 1328 3920 1328 3888
WIRE 1408 3920 1408 3888
WIRE 1520 3920 1520 3888
WIRE -704 3936 -704 3904
WIRE -592 3936 -592 3904
WIRE 9472 3936 9472 3840
WIRE 9472 3936 9392 3936
WIRE 9536 3936 9472 3936
WIRE 9648 3936 9648 3888
WIRE 9648 3936 9600 3936
WIRE 10176 3936 10176 3840
WIRE 10240 3936 10176 3936
WIRE 10352 3936 10352 3888
WIRE 10352 3936 10304 3936
WIRE 10512 3936 10352 3936
WIRE 10640 3936 10640 3840
WIRE 10640 3936 10592 3936
WIRE 10784 3936 10784 3840
WIRE 10848 3936 10784 3936
WIRE 10960 3936 10960 3888
WIRE 10960 3936 10912 3936
WIRE 11184 3936 10960 3936
WIRE 11312 3936 11312 3840
WIRE 11312 3936 11264 3936
WIRE 11456 3936 11456 3840
WIRE 11520 3936 11456 3936
WIRE 11632 3936 11632 3888
WIRE 11632 3936 11584 3936
WIRE 11840 3936 11632 3936
WIRE 11968 3936 11968 3840
WIRE 11968 3936 11920 3936
WIRE 12112 3936 12112 3840
WIRE 12176 3936 12112 3936
WIRE 12288 3936 12288 3888
WIRE 12288 3936 12240 3936
WIRE 12448 3936 12288 3936
WIRE 12576 3936 12576 3840
WIRE 12576 3936 12528 3936
WIRE 12720 3936 12720 3840
WIRE 12784 3936 12720 3936
WIRE 12896 3936 12896 3888
WIRE 12896 3936 12848 3936
WIRE 13120 3936 12896 3936
WIRE 13248 3936 13248 3840
WIRE 13248 3936 13200 3936
WIRE 13392 3936 13392 3840
WIRE 13456 3936 13392 3936
WIRE 13568 3936 13568 3888
WIRE 13568 3936 13520 3936
WIRE 13776 3936 13568 3936
WIRE 13904 3936 13904 3840
WIRE 13904 3936 13856 3936
WIRE 14048 3936 14048 3840
WIRE 14112 3936 14048 3936
WIRE 14224 3936 14224 3888
WIRE 14224 3936 14176 3936
WIRE 9648 3952 9648 3936
WIRE 9904 3952 9648 3952
WIRE 10032 3952 10032 3840
WIRE 10032 3952 9984 3952
WIRE 8544 3968 8512 3968
WIRE 9008 3968 8544 3968
WIRE 9392 3968 9392 3936
WIRE 3472 3984 3408 3984
WIRE 3792 3984 3552 3984
WIRE 3904 3984 3792 3984
WIRE 4464 3984 3904 3984
WIRE 5264 3984 4464 3984
WIRE 5520 3984 5264 3984
WIRE 5696 3984 5520 3984
WIRE 6320 3984 5696 3984
WIRE 6496 3984 6320 3984
WIRE 4464 4000 4464 3984
WIRE 6320 4000 6320 3984
WIRE 2080 4016 2080 3984
WIRE 3792 4016 3792 3984
WIRE 3904 4016 3904 3984
WIRE 5520 4016 5520 3984
WIRE 5696 4016 5696 3984
WIRE 9648 4016 9648 3952
WIRE 10352 4016 10352 3936
WIRE 10960 4016 10960 3936
WIRE 11632 4016 11632 3936
WIRE 12288 4016 12288 3936
WIRE 12896 4016 12896 3936
WIRE 13568 4016 13568 3936
WIRE 14224 4016 14224 3936
WIRE -32 4032 -32 4000
WIRE 5264 4048 5264 3984
WIRE 1776 4064 1712 4064
WIRE 1920 4064 1856 4064
WIRE 2016 4064 1920 4064
WIRE -336 4080 -400 4080
WIRE -192 4080 -256 4080
WIRE -96 4080 -192 4080
WIRE 5520 4112 5520 4096
WIRE 6320 4112 6320 4080
WIRE 5056 4128 3568 4128
WIRE 9648 4128 9648 4096
WIRE 9744 4128 9648 4128
WIRE 10352 4128 10352 4096
WIRE 10448 4128 10352 4128
WIRE 10960 4128 10960 4096
WIRE 11056 4128 10960 4128
WIRE 11632 4128 11632 4096
WIRE 11728 4128 11632 4128
WIRE 12288 4128 12288 4096
WIRE 12384 4128 12288 4128
WIRE 12896 4128 12896 4096
WIRE 12992 4128 12896 4128
WIRE 13568 4128 13568 4096
WIRE 13664 4128 13568 4128
WIRE 14224 4128 14224 4096
WIRE 14304 4128 14224 4128
WIRE 14320 4128 14304 4128
WIRE 1520 4144 1520 4000
WIRE 1712 4144 1712 4064
WIRE 9392 4144 9392 4048
WIRE -592 4160 -592 4016
WIRE -400 4160 -400 4080
WIRE 1920 4160 1920 4064
WIRE 1968 4160 1920 4160
WIRE 2080 4160 2080 4112
WIRE 2080 4160 2032 4160
WIRE 5024 4160 3600 4160
WIRE 5264 4160 5264 4128
WIRE 5264 4160 5200 4160
WIRE 5312 4160 5264 4160
WIRE 5456 4160 5312 4160
WIRE 6016 4160 5920 4160
WIRE 6160 4160 6096 4160
WIRE 6256 4160 6160 4160
WIRE -192 4176 -192 4080
WIRE -144 4176 -192 4176
WIRE -32 4176 -32 4128
WIRE -32 4176 -80 4176
WIRE 10352 4176 10352 4128
WIRE 10960 4176 10960 4128
WIRE 11632 4176 11632 4128
WIRE 12288 4176 12288 4128
WIRE 12896 4176 12896 4128
WIRE 13568 4176 13568 4128
WIRE 14224 4176 14224 4128
WIRE 976 4192 944 4192
WIRE 1008 4192 976 4192
WIRE 1456 4192 1088 4192
WIRE 9328 4192 9264 4192
WIRE 9648 4192 9648 4128
WIRE -1136 4208 -1168 4208
WIRE -1104 4208 -1136 4208
WIRE -656 4208 -1024 4208
WIRE 2080 4208 2080 4160
WIRE 4464 4208 4464 4080
WIRE -32 4224 -32 4176
WIRE 5920 4224 5920 4160
WIRE 1408 4240 1408 4000
WIRE 5312 4240 5312 4160
WIRE -704 4256 -704 4016
WIRE 4160 4256 4096 4256
WIRE 4304 4256 4240 4256
WIRE 4400 4256 4304 4256
WIRE 6160 4256 6160 4160
WIRE 6208 4256 6160 4256
WIRE 6320 4256 6320 4208
WIRE 6320 4256 6272 4256
WIRE 5856 4272 5808 4272
WIRE 976 4288 944 4288
WIRE 1008 4288 976 4288
WIRE 1344 4288 1088 4288
WIRE 5056 4288 5056 4128
WIRE 5248 4288 5056 4288
WIRE -1136 4304 -1168 4304
WIRE -1104 4304 -1136 4304
WIRE -768 4304 -1024 4304
WIRE 6320 4304 6320 4256
WIRE 9264 4304 9264 4192
WIRE 2080 4336 2080 4288
WIRE 2176 4336 2080 4336
WIRE 3904 4336 3904 4096
WIRE 4096 4336 4096 4256
WIRE 10352 4336 10352 4256
WIRE 10528 4336 10352 4336
WIRE 10640 4336 10608 4336
WIRE 10960 4336 10960 4256
WIRE 11200 4336 10960 4336
WIRE 11312 4336 11280 4336
WIRE 11632 4336 11632 4256
WIRE 11856 4336 11632 4336
WIRE 11968 4336 11936 4336
WIRE 12288 4336 12288 4256
WIRE 12464 4336 12288 4336
WIRE 12576 4336 12544 4336
WIRE 12896 4336 12896 4256
WIRE 13136 4336 12896 4336
WIRE 13248 4336 13216 4336
WIRE 13568 4336 13568 4256
WIRE 13792 4336 13568 4336
WIRE 13904 4336 13872 4336
WIRE -32 4352 -32 4304
WIRE 64 4352 -32 4352
WIRE 4304 4352 4304 4256
WIRE 4352 4352 4304 4352
WIRE 4464 4352 4464 4304
WIRE 4464 4352 4416 4352
WIRE 5200 4352 5200 4160
WIRE 9648 4352 9648 4272
WIRE 9920 4352 9648 4352
WIRE 10032 4352 10000 4352
WIRE 1328 4368 1328 4000
WIRE 9552 4368 9488 4368
WIRE 9648 4368 9648 4352
WIRE 9648 4368 9616 4368
WIRE 10256 4368 10192 4368
WIRE 10352 4368 10352 4336
WIRE 10352 4368 10320 4368
WIRE 10864 4368 10800 4368
WIRE 10960 4368 10960 4336
WIRE 10960 4368 10928 4368
WIRE 11536 4368 11472 4368
WIRE 11632 4368 11632 4336
WIRE 11632 4368 11600 4368
WIRE 12192 4368 12128 4368
WIRE 12288 4368 12288 4336
WIRE 12288 4368 12256 4368
WIRE 12800 4368 12736 4368
WIRE 12896 4368 12896 4336
WIRE 12896 4368 12864 4368
WIRE 13472 4368 13408 4368
WIRE 13568 4368 13568 4336
WIRE 13568 4368 13536 4368
WIRE 14128 4368 14064 4368
WIRE 14224 4368 14224 4256
WIRE 14224 4368 14192 4368
WIRE 3360 4384 3328 4384
WIRE 3392 4384 3360 4384
WIRE 3568 4384 3568 4128
WIRE 3568 4384 3472 4384
WIRE 3840 4384 3568 4384
WIRE 2080 4400 2080 4336
WIRE 4464 4400 4464 4352
WIRE 5024 4400 5024 4160
WIRE 5136 4400 5024 4400
WIRE -32 4416 -32 4352
WIRE 976 4416 944 4416
WIRE 1008 4416 976 4416
WIRE 1264 4416 1088 4416
WIRE 9648 4416 9648 4368
WIRE 10352 4416 10352 4368
WIRE 10960 4416 10960 4368
WIRE 11632 4416 11632 4368
WIRE 12288 4416 12288 4368
WIRE 12896 4416 12896 4368
WIRE 13568 4416 13568 4368
WIRE 14224 4416 14224 4368
WIRE 3792 4432 3792 4096
WIRE 9008 4464 9008 3968
WIRE 9264 4464 9264 4384
WIRE 9264 4464 9008 4464
WIRE 9296 4464 9264 4464
WIRE 9488 4464 9488 4368
WIRE 9488 4464 9376 4464
WIRE 9584 4464 9488 4464
WIRE 10032 4464 10032 4352
WIRE 10192 4464 10192 4368
WIRE 10192 4464 10032 4464
WIRE 10288 4464 10192 4464
WIRE 10640 4464 10640 4336
WIRE 10800 4464 10800 4368
WIRE 10800 4464 10640 4464
WIRE 10896 4464 10800 4464
WIRE 11312 4464 11312 4336
WIRE 11472 4464 11472 4368
WIRE 11472 4464 11312 4464
WIRE 11568 4464 11472 4464
WIRE 11968 4464 11968 4336
WIRE 12128 4464 12128 4368
WIRE 12128 4464 11968 4464
WIRE 12224 4464 12128 4464
WIRE 12576 4464 12576 4336
WIRE 12736 4464 12736 4368
WIRE 12736 4464 12576 4464
WIRE 12832 4464 12736 4464
WIRE 13248 4464 13248 4336
WIRE 13408 4464 13408 4368
WIRE 13408 4464 13248 4464
WIRE 13504 4464 13408 4464
WIRE 13904 4464 13904 4336
WIRE 14064 4464 14064 4368
WIRE 14064 4464 13904 4464
WIRE 14160 4464 14064 4464
WIRE 3360 4480 3328 4480
WIRE 3392 4480 3360 4480
WIRE 3600 4480 3600 4160
WIRE 3600 4480 3472 4480
WIRE 3728 4480 3600 4480
WIRE 5696 4480 5696 4096
WIRE 4464 4528 4464 4480
WIRE 5632 4528 4464 4528
WIRE 6320 4528 6320 4384
WIRE 6416 4528 6320 4528
WIRE 1232 4544 1232 4000
WIRE 976 4592 944 4592
WIRE 1008 4592 976 4592
WIRE 1168 4592 1088 4592
WIRE 1984 4592 1920 4592
WIRE 2080 4592 2080 4480
WIRE 2080 4592 2048 4592
WIRE 4464 4592 4464 4528
WIRE -128 4608 -192 4608
WIRE -32 4608 -32 4496
WIRE -32 4608 -64 4608
WIRE 2080 4640 2080 4592
WIRE -32 4656 -32 4608
WIRE 6320 4672 6320 4528
WIRE 9392 4672 9392 4240
WIRE 9392 4672 8528 4672
WIRE 9648 4672 9648 4512
WIRE 9648 4672 9392 4672
WIRE 10352 4672 10352 4512
WIRE 10352 4672 9648 4672
WIRE 10960 4672 10960 4512
WIRE 10960 4672 10352 4672
WIRE 11632 4672 11632 4512
WIRE 11632 4672 10960 4672
WIRE 12288 4672 12288 4512
WIRE 12288 4672 11632 4672
WIRE 12896 4672 12896 4512
WIRE 12896 4672 12288 4672
WIRE 13568 4672 13568 4512
WIRE 13568 4672 12896 4672
WIRE 14224 4672 14224 4512
WIRE 14224 4672 13568 4672
WIRE 1232 4688 1232 4640
WIRE 1328 4688 1328 4464
WIRE 1328 4688 1232 4688
WIRE 1408 4688 1408 4336
WIRE 1408 4688 1328 4688
WIRE 1520 4688 1520 4240
WIRE 1520 4688 1408 4688
WIRE 1648 4688 1648 4192
WIRE 1648 4688 1520 4688
WIRE 1760 4688 1648 4688
WIRE 1920 4688 1920 4592
WIRE 1920 4688 1840 4688
WIRE 2016 4688 1920 4688
WIRE -704 4704 -704 4352
WIRE -592 4704 -592 4256
WIRE -592 4704 -704 4704
WIRE -464 4704 -464 4208
WIRE -464 4704 -592 4704
WIRE -352 4704 -464 4704
WIRE -192 4704 -192 4608
WIRE -192 4704 -272 4704
WIRE -96 4704 -192 4704
WIRE 8528 4720 8528 4672
WIRE 1712 4752 1712 4240
WIRE -400 4768 -400 4256
WIRE 2080 4768 2080 4736
WIRE -32 4784 -32 4752
WIRE 4368 4784 4304 4784
WIRE 4464 4784 4464 4672
WIRE 4464 4784 4432 4784
WIRE 6224 4784 6160 4784
WIRE 6320 4784 6320 4752
WIRE 6320 4784 6288 4784
WIRE 14304 4816 14304 4128
WIRE 14304 4816 12160 4816
WIRE 4464 4832 4464 4784
WIRE 6320 4832 6320 4784
WIRE 3792 4880 3792 4528
WIRE 3904 4880 3904 4432
WIRE 3904 4880 3792 4880
WIRE 4032 4880 4032 4384
WIRE 4032 4880 3904 4880
WIRE 4144 4880 4032 4880
WIRE 4304 4880 4304 4784
WIRE 4304 4880 4224 4880
WIRE 4400 4880 4304 4880
WIRE 5520 4880 5520 4208
WIRE 5696 4880 5696 4576
WIRE 5696 4880 5520 4880
WIRE 5808 4880 5808 4272
WIRE 5808 4880 5696 4880
WIRE 6000 4880 5808 4880
WIRE 6160 4880 6160 4784
WIRE 6160 4880 6080 4880
WIRE 6256 4880 6160 4880
WIRE 1712 4896 1712 4832
WIRE 1712 4896 960 4896
WIRE 2080 4896 2080 4848
WIRE 2080 4896 1712 4896
WIRE 2256 4896 2080 4896
WIRE 5200 4896 5200 4448
WIRE 5312 4896 5312 4336
WIRE -400 4912 -400 4848
WIRE -400 4912 -1152 4912
WIRE -32 4912 -32 4864
WIRE -32 4912 -400 4912
WIRE 144 4912 -32 4912
WIRE 5920 4928 5920 4320
WIRE 960 4944 960 4896
WIRE 4096 4944 4096 4432
WIRE -1152 4960 -1152 4912
WIRE 4464 4960 4464 4928
WIRE 5520 4960 5520 4880
WIRE 6320 4960 6320 4928
WIRE 12592 4976 12528 4976
WIRE 12864 4976 12672 4976
WIRE 13072 4976 12864 4976
WIRE 13584 4976 13072 4976
WIRE 13920 4976 13584 4976
WIRE 14128 4976 13920 4976
WIRE 14640 4976 14128 4976
WIRE 14816 4976 14640 4976
WIRE 13584 4992 13584 4976
WIRE 14640 4992 14640 4976
WIRE 12864 5024 12864 4976
WIRE 13920 5024 13920 4976
WIRE 4096 5088 4096 5024
WIRE 4096 5088 3344 5088
WIRE 4464 5088 4464 5040
WIRE 4464 5088 4096 5088
WIRE 5200 5088 5200 4976
WIRE 5200 5088 4464 5088
WIRE 5312 5088 5312 4976
WIRE 5312 5088 5200 5088
WIRE 5520 5088 5520 5040
WIRE 5520 5088 5312 5088
WIRE 5920 5088 5920 5008
WIRE 5920 5088 5520 5088
WIRE 6320 5088 6320 5040
WIRE 6320 5088 5920 5088
WIRE 6496 5088 6320 5088
WIRE 13584 5104 13584 5072
WIRE 14640 5104 14640 5072
WIRE 3344 5136 3344 5088
WIRE 12864 5152 12864 5104
WIRE 13280 5152 12864 5152
WIRE 13424 5152 13360 5152
WIRE 13520 5152 13424 5152
WIRE 13920 5152 13920 5104
WIRE 14336 5152 13920 5152
WIRE 14480 5152 14416 5152
WIRE 14576 5152 14480 5152
WIRE 12864 5232 12864 5152
WIRE 13072 5232 13072 4976
WIRE 13920 5232 13920 5152
WIRE 14128 5232 14128 4976
WIRE 13424 5248 13424 5152
WIRE 13472 5248 13424 5248
WIRE 13584 5248 13584 5200
WIRE 13584 5248 13536 5248
WIRE 14480 5248 14480 5152
WIRE 14528 5248 14480 5248
WIRE 14640 5248 14640 5200
WIRE 14640 5248 14592 5248
WIRE 12160 5280 12160 4816
WIRE 12736 5280 12160 5280
WIRE 12800 5280 12736 5280
WIRE 13008 5280 12960 5280
WIRE 13856 5280 13792 5280
WIRE 14064 5280 14016 5280
WIRE 13584 5312 13584 5248
WIRE 14640 5312 14640 5248
WIRE 12736 5408 12736 5280
WIRE 12960 5408 12960 5280
WIRE 12960 5408 12736 5408
WIRE 13792 5408 13792 5280
WIRE 14016 5408 14016 5280
WIRE 14016 5408 13792 5408
WIRE 13584 5440 13584 5392
WIRE 13680 5440 13584 5440
WIRE 13792 5440 13792 5408
WIRE 13792 5440 13680 5440
WIRE 14640 5440 14640 5392
WIRE 14736 5440 14640 5440
WIRE 14848 5440 14736 5440
WIRE 13584 5520 13584 5440
WIRE 14640 5520 14640 5440
WIRE 13488 5680 13424 5680
WIRE 13584 5680 13584 5600
WIRE 13584 5680 13552 5680
WIRE 14544 5680 14480 5680
WIRE 14640 5680 14640 5600
WIRE 14640 5680 14608 5680
WIRE 13584 5728 13584 5680
WIRE 14640 5728 14640 5680
WIRE 13072 5776 13072 5328
WIRE 13264 5776 13072 5776
WIRE 13424 5776 13424 5680
WIRE 13424 5776 13344 5776
WIRE 13520 5776 13424 5776
WIRE 14128 5776 14128 5328
WIRE 14320 5776 14128 5776
WIRE 14480 5776 14480 5680
WIRE 14480 5776 14400 5776
WIRE 14576 5776 14480 5776
WIRE 13072 5840 13072 5776
WIRE 14128 5840 14128 5776
WIRE 13584 5856 13584 5824
WIRE 14640 5856 14640 5824
WIRE 12864 5984 12864 5328
WIRE 12864 5984 12464 5984
WIRE 13072 5984 13072 5920
WIRE 13072 5984 12864 5984
WIRE 13584 5984 13584 5936
WIRE 13584 5984 13072 5984
WIRE 13920 5984 13920 5328
WIRE 13920 5984 13584 5984
WIRE 14128 5984 14128 5920
WIRE 14128 5984 13920 5984
WIRE 14640 5984 14640 5936
WIRE 14640 5984 14128 5984
WIRE 14816 5984 14640 5984
WIRE 12464 6032 12464 5984
WIRE 12608 6288 12544 6288
WIRE 12880 6288 12688 6288
WIRE 13088 6288 12880 6288
WIRE 13600 6288 13088 6288
WIRE 13936 6288 13600 6288
WIRE 14144 6288 13936 6288
WIRE 14656 6288 14144 6288
WIRE 14832 6288 14656 6288
WIRE 13600 6304 13600 6288
WIRE 14656 6304 14656 6288
WIRE 12880 6336 12880 6288
WIRE 13936 6336 13936 6288
WIRE 13600 6416 13600 6384
WIRE 14656 6416 14656 6384
WIRE 12880 6464 12880 6416
WIRE 13296 6464 12880 6464
WIRE 13440 6464 13376 6464
WIRE 13536 6464 13440 6464
WIRE 13936 6464 13936 6416
WIRE 14352 6464 13936 6464
WIRE 14496 6464 14432 6464
WIRE 14592 6464 14496 6464
WIRE 12880 6544 12880 6464
WIRE 13088 6544 13088 6288
WIRE 13936 6544 13936 6464
WIRE 14144 6544 14144 6288
WIRE 13440 6560 13440 6464
WIRE 13488 6560 13440 6560
WIRE 13600 6560 13600 6512
WIRE 13600 6560 13552 6560
WIRE 14496 6560 14496 6464
WIRE 14544 6560 14496 6560
WIRE 14656 6560 14656 6512
WIRE 14656 6560 14608 6560
WIRE 11728 6592 11728 4128
WIRE 12752 6592 11728 6592
WIRE 12816 6592 12752 6592
WIRE 13024 6592 12976 6592
WIRE 13872 6592 13808 6592
WIRE 14080 6592 14032 6592
WIRE 13600 6624 13600 6560
WIRE 14656 6624 14656 6560
WIRE 12752 6720 12752 6592
WIRE 12976 6720 12976 6592
WIRE 12976 6720 12752 6720
WIRE 13808 6720 13808 6592
WIRE 14032 6720 14032 6592
WIRE 14032 6720 13808 6720
WIRE 13600 6752 13600 6704
WIRE 13696 6752 13600 6752
WIRE 13808 6752 13808 6720
WIRE 13808 6752 13696 6752
WIRE 14656 6752 14656 6704
WIRE 14752 6752 14656 6752
WIRE 14864 6752 14752 6752
WIRE 13600 6832 13600 6752
WIRE 14656 6832 14656 6752
WIRE 13504 6992 13440 6992
WIRE 13600 6992 13600 6912
WIRE 13600 6992 13568 6992
WIRE 14560 6992 14496 6992
WIRE 14656 6992 14656 6912
WIRE 14656 6992 14624 6992
WIRE 13600 7040 13600 6992
WIRE 14656 7040 14656 6992
WIRE 13088 7088 13088 6640
WIRE 13280 7088 13088 7088
WIRE 13440 7088 13440 6992
WIRE 13440 7088 13360 7088
WIRE 13536 7088 13440 7088
WIRE 14144 7088 14144 6640
WIRE 14336 7088 14144 7088
WIRE 14496 7088 14496 6992