Version 4.1
SHEET 1 14868 7364
WIRE -528 32 -528 0
WIRE -528 128 -528 112
WIRE -16 784 -80 784
WIRE 256 784 64 784
WIRE 464 784 256 784
WIRE 976 784 464 784
WIRE 1152 784 976 784
WIRE 256 848 256 784
WIRE 256 976 256 928
WIRE 384 976 256 976
WIRE 976 976 976 784
WIRE 464 992 464 784
WIRE 256 1008 256 976
WIRE 976 1088 976 1056
WIRE 384 1136 384 976
WIRE 672 1136 384 1136
WIRE 816 1136 752 1136
WIRE 912 1136 816 1136
WIRE 256 1216 256 1088
WIRE 464 1216 464 1072
WIRE 816 1232 816 1136
WIRE 864 1232 816 1232
WIRE 976 1232 976 1184
WIRE 976 1232 928 1232
WIRE -128 1264 -160 1264
WIRE -96 1264 -128 1264
WIRE 128 1264 -16 1264
WIRE 192 1264 128 1264
WIRE 400 1264 352 1264
WIRE 976 1280 976 1232
WIRE 976 1424 976 1360
WIRE 1072 1424 976 1424
WIRE 128 1440 128 1264
WIRE 352 1440 352 1264
WIRE 352 1440 128 1440
WIRE 976 1472 976 1424
WIRE 880 1664 816 1664
WIRE 976 1664 976 1552
WIRE 976 1664 944 1664
WIRE 976 1712 976 1664
WIRE 656 1760 608 1760
WIRE 816 1760 816 1664
WIRE 816 1760 736 1760
WIRE 912 1760 816 1760
WIRE 256 1776 256 1312
WIRE 976 1840 976 1808
WIRE 464 1888 464 1312
WIRE 464 2000 464 1968
WIRE 608 2000 608 1760
WIRE 608 2000 464 2000
WIRE 464 2016 464 2000
WIRE 256 2144 256 1856
WIRE 256 2144 -144 2144
WIRE 464 2144 464 2096
WIRE 464 2144 256 2144
WIRE 976 2144 976 1920
WIRE 976 2144 464 2144
WIRE 1152 2144 976 2144
WIRE -144 2192 -144 2144
WIRE 13504 6992 13440 6992
WIRE 13600 6992 13600 6912
WIRE 13600 6992 13568 6992
WIRE 14560 6992 14496 6992
WIRE 14656 6992 14656 6912
WIRE 14656 6992 14624 6992
WIRE 13600 7040 13600 6992
WIRE 14656 7040 14656 6992
WIRE 13088 7088 13088 6640
WIRE 13280 7088 13088 7088
WIRE 13440 7088 13440 6992
WIRE 13440 7088 13360 7088
WIRE 13536 7088 13440 7088
WIRE 14144 7088 14144 6640
WIRE 14336 7088 14144 7088
WIRE 14496 7088 14496 6992
WIRE 14496 7088 14416 7088
WIRE 14592 7088 14496 7088
WIRE 13088 7152 13088 7088
WIRE 14144 7152 14144 7088
WIRE 13600 7168 13600 7136
WIRE 14656 7168 14656 7136
WIRE 12880 7296 12880 6640
WIRE 12880 7296 12480 7296
WIRE 13088 7296 13088 7232
WIRE 13088 7296 12880 7296
WIRE 13600 7296 13600 7248
WIRE 13600 7296 13088 7296
WIRE 13936 7296 13936 6640
WIRE 13936 7296 13600 7296
WIRE 14144 7296 14144 7232
WIRE 14144 7296 13936 7296
WIRE 14656 7296 14656 7248
WIRE 14656 7296 14144 7296
WIRE 14832 7296 14656 7296
WIRE 12480 7344 12480 7296
FLAG -528 128 0
FLAG 352 0 BIT0
FLAG -528 0 VCC
FLAG 272 0 0
FLAG 352 160 BIT1
FLAG 272 160 0
FLAG 352 304 BIT2
FLAG 272 304 0
FLAG 352 448 BIT3
FLAG 272 448 0
FLAG 352 592 BIT4
FLAG 272 592 0
FLAG 1312 80 BIT0
FLAG 1312 160 0
FLAG 1472 80 BIT1
FLAG 1472 160 0
FLAG 1632 80 BIT2
FLAG 1632 160 0
FLAG 1792 80 BIT3
FLAG 1792 160 0
FLAG 1952 80 BIT4
FLAG 1952 160 0
FLAG -144 2192 0
FLAG 1072 1424 OUT2a
FLAG -128 1264 BIT0
FLAG -80 784 VCC
FLAG 12480 7344 0
SYMBOL voltage -528 16 R0
WINDOW 123 0 0 Left 0
WINDOW 39 0 0 Left 0
SYMATTR InstName VCC
SYMATTR Value {VCC}
SYMBOL voltage 368 0 R90
WINDOW 123 -77 30 VRight 2
WINDOW 39 0 0 Left 0
WINDOW 0 -51 28 VRight 2
WINDOW 3 46 -379 VRight 2
SYMATTR Value2 AC 5
SYMATTR InstName V_BIT0
SYMATTR Value PULSE(0 {VCC} 0 {rise} {rise} {1/freq/2-rise} {1/freq} {16*reps})
SYMBOL voltage 368 160 R90
WINDOW 123 -77 30 VRight 2
WINDOW 39 0 0 Left 0
WINDOW 0 -51 28 VRight 2
WINDOW 3 46 -379 VRight 2
SYMATTR InstName V_BIT1
SYMATTR Value PULSE(0 {VCC} 0 {rise} {rise} {2*1/freq/2-rise} {2*1/freq} {8*reps})
SYMBOL voltage 368 304 R90
WINDOW 123 -77 30 VRight 2
WINDOW 39 0 0 Left 0
WINDOW 0 -51 28 VRight 2
WINDOW 3 46 -379 VRight 2
SYMATTR InstName V_BIT2
SYMATTR Value PULSE(0 {VCC} 0 {rise} {rise} {4*1/freq/2-rise} {4*1/freq} {4*reps})
SYMBOL voltage 368 448 R90
WINDOW 123 -77 30 VRight 2
WINDOW 39 0 0 Left 0
WINDOW 0 -51 28 VRight 2
WINDOW 3 46 -379 VRight 2
SYMATTR InstName V_BIT3
SYMATTR Value PULSE(0 {VCC} 0 {rise} {rise} {8*1/freq/2-rise} {8*1/freq} {2*reps})
SYMBOL voltage 368 592 R90
WINDOW 123 -77 30 VRight 2
WINDOW 39 0 0 Left 0
WINDOW 0 -51 28 VRight 2
WINDOW 3 46 -379 VRight 2
SYMATTR InstName V_BIT4
SYMATTR Value PULSE(0 {VCC} 0 {rise} {rise} {16*1/freq/2-rise} {16*1/freq} {1*reps})
SYMBOL res 1296 64 R0
SYMATTR InstName R1
SYMATTR Value 10Mega
SYMBOL res 1456 64 R0
SYMATTR InstName R2
SYMATTR Value 10Mega
SYMBOL res 1616 64 R0
SYMATTR InstName R3
SYMATTR Value 10Mega
SYMBOL res 1776 64 R0
SYMATTR InstName R4
SYMATTR Value 10Mega
SYMBOL res 1936 64 R0
SYMATTR InstName R5
SYMATTR Value 10Mega
SYMBOL res 640 1776 R270
WINDOW 0 32 56 VTop 2
WINDOW 3 0 56 VBottom 2
SYMATTR InstName R23
SYMATTR Value 1m
SYMBOL npn 912 1712 R0
SYMATTR InstName Q13
SYMATTR Value 2N3904
SYMBOL schottky 880 1680 R270
WINDOW 0 32 32 VTop 2
WINDOW 3 0 32 VBottom 2
SYMATTR InstName D5
SYMATTR Value BAT54
SYMATTR Description Diode
SYMATTR Type diode
SYMBOL pnp 912 1184 M180
SYMATTR InstName Q30
SYMATTR Value 2N3906
SYMBOL schottky 928 1216 R90
WINDOW 0 0 32 VBottom 2
WINDOW 3 32 32 VTop 2
SYMATTR InstName D6
SYMATTR Value BAT54
SYMATTR Description Diode
SYMATTR Type diode
SYMBOL res 768 1120 R90
WINDOW 0 0 56 VBottom 2
WINDOW 3 32 56 VTop 2
SYMATTR InstName R27
SYMATTR Value 1m
SYMBOL res -32 800 R270
WINDOW 0 32 56 VTop 2
WINDOW 3 0 56 VBottom 2
SYMATTR InstName R31
SYMATTR Value 1m
SYMBOL res -112 1280 R270
WINDOW 0 32 56 VTop 2
WINDOW 3 0 56 VBottom 2
SYMATTR InstName R84
SYMATTR Value 1m
SYMBOL npn 400 1216 R0
SYMATTR InstName Q31
SYMATTR Value 2N3904
SYMBOL pnp 192 1312 M180
SYMATTR InstName Q32
SYMATTR Value 2N3906
SYMBOL res 448 976 R0
SYMATTR InstName R87
SYMATTR Value 1m
SYMBOL res 960 960 R0
SYMATTR InstName R88
SYMATTR Value 1m
SYMBOL res 240 1760 R0
SYMATTR InstName R89
SYMATTR Value 1m
SYMBOL res 960 1824 R0
SYMATTR InstName R90
SYMATTR Value 1m
SYMBOL res 960 1264 R0
SYMATTR InstName R91
SYMATTR Value {Rout}
SYMBOL res 960 1456 R0
SYMATTR InstName R92
SYMATTR Value {Rout}
SYMBOL res 13264 7104 R270
WINDOW 0 32 56 VTop 2
WINDOW 3 0 56 VBottom 2
SYMATTR InstName R226
SYMATTR Value {Rb}
SYMBOL npn 13536 7040 R0
SYMATTR InstName Q104
SYMATTR Value 2N3904
SYMBOL schottky 13504 7008 R270
WINDOW 0 32 32 VTop 2
WINDOW 3 0 32 VBottom 2
SYMATTR InstName D48
SYMATTR Value BAT54
SYMATTR Description Diode
SYMATTR Type diode
SYMBOL res 13584 6816 R0
SYMATTR InstName R230
SYMATTR Value 1
SYMBOL res 13072 7136 R0
SYMATTR InstName R232
SYMATTR Value 1k
SYMBOL res 13584 7152 R0
SYMATTR InstName R234
SYMATTR Value 100
SYMBOL res 14320 7104 R270
WINDOW 0 32 56 VTop 2
WINDOW 3 0 56 VBottom 2
SYMATTR InstName R235
SYMATTR Value {Rb}
SYMBOL npn 14592 7040 R0
SYMATTR InstName Q108
SYMATTR Value 2N3904
SYMBOL schottky 14560 7008 R270
WINDOW 0 32 32 VTop 2
WINDOW 3 0 32 VBottom 2
SYMATTR InstName D50
SYMATTR Value BAT54
SYMATTR Description Diode
SYMATTR Type diode
SYMBOL res 14640 6816 R0
SYMATTR InstName R238
SYMATTR Value 1
SYMBOL res 14128 7136 R0
SYMATTR InstName R240
SYMATTR Value 1k
SYMBOL res 14640 7152 R0
SYMATTR InstName R242
SYMATTR Value 100
SYMBOL res 448 1872 R0
SYMATTR InstName R243
SYMATTR Value {Rb*10}
SYMBOL res 240 992 R0
SYMATTR InstName R244
SYMATTR Value {Rb*10}
SYMBOL res 240 832 R0
SYMATTR InstName R245
SYMATTR Value {Rb}
SYMBOL res 448 2000 R0
SYMATTR InstName R246
SYMATTR Value {Rb}
TEXT -560 320 Left 2 !.tran {16*reps/freq}
TEXT -560 376 Left 2 ;.ac oct 100 1k 100mega
TEXT -560 408 Left 2 ;.dc V_BIT0 0 {VCC} 0.01
TEXT -840 -24 Left 2 !.param VCC=12
TEXT -840 8 Left 2 !.param freq=0.7Mega
TEXT -840 40 Left 2 !.param rise=1n
TEXT -840 72 Left 2 !.param reps=1
TEXT -840 104 Left 2 !.param Rb=100
TEXT -840 -192 Left 2 ;Rb controls gate delay (rise and fall edge) as well as gate power consumption.\n \nRb=100 --> 4/5ns gate delay; 35mA gate power\nRb=200 --> 6/8ns gate delay; 20mA gate power
TEXT -840 144 Left 2 !.param Rin=100
TEXT -840 184 Left 2 !.param Rout=50
TEXT -840 216 Left 2 !.step  temp -25 125 25
