Version 4
SHEET 1 14868 10612
WIRE -528 32 -528 0
WIRE -528 128 -528 112
WIRE 8288 400 8032 400
WIRE 8704 400 8288 400
WIRE 8896 400 8784 400
WIRE 8976 400 8896 400
WIRE 12416 400 11072 400
WIRE 12544 400 12416 400
WIRE 12736 400 12624 400
WIRE 12928 400 12736 400
WIRE 8032 496 8032 400
WIRE 8896 496 8896 400
WIRE 11072 496 11072 400
WIRE 12736 496 12736 400
WIRE 8832 544 8784 544
WIRE 12672 544 12624 544
WIRE 7920 752 7856 752
WIRE 8032 752 8032 576
WIRE 8032 752 8000 752
WIRE 8464 752 8032 752
WIRE 8784 752 8784 544
WIRE 8784 752 8464 752
WIRE 8896 752 8896 592
WIRE 8896 752 8784 752
WIRE 10224 752 8896 752
WIRE 10960 752 10896 752
WIRE 11072 752 11072 576
WIRE 11072 752 11040 752
WIRE 11504 752 11072 752
WIRE 12016 752 11504 752
WIRE 12624 752 12624 544
WIRE 12624 752 12016 752
WIRE 12736 752 12736 592
WIRE 12736 752 12624 752
WIRE 13264 752 12736 752
WIRE 3456 768 3392 768
WIRE 3936 768 3536 768
WIRE 4448 768 3936 768
WIRE 4752 768 4448 768
WIRE 5264 768 4752 768
WIRE 5632 768 5264 768
WIRE 6144 768 5632 768
WIRE 6368 768 6144 768
WIRE -16 784 -80 784
WIRE 256 784 64 784
WIRE 464 784 256 784
WIRE 976 784 464 784
WIRE 1200 784 976 784
WIRE 8288 800 8288 400
WIRE 12416 800 12416 400
WIRE 256 848 256 784
WIRE 12016 928 12016 752
WIRE 4448 944 4448 768
WIRE 5264 944 5264 768
WIRE 6144 944 6144 768
WIRE 8464 960 8464 752
WIRE 11504 960 11504 752
WIRE 256 976 256 928
WIRE 384 976 256 976
WIRE 976 976 976 784
WIRE 3936 976 3936 768
WIRE 4752 976 4752 768
WIRE 5632 976 5632 768
WIRE 8976 976 8976 400
WIRE 12928 976 12928 400
WIRE 464 992 464 784
WIRE 256 1008 256 976
WIRE 976 1088 976 1056
WIRE 8976 1088 8976 1056
WIRE 12928 1088 12928 1056
WIRE 384 1136 384 976
WIRE 672 1136 384 1136
WIRE 816 1136 752 1136
WIRE 912 1136 816 1136
WIRE 8288 1136 8288 880
WIRE 8656 1136 8288 1136
WIRE 8816 1136 8736 1136
WIRE 8912 1136 8816 1136
WIRE 12416 1136 12416 880
WIRE 12608 1136 12416 1136
WIRE 12768 1136 12688 1136
WIRE 12864 1136 12768 1136
WIRE 8464 1184 8464 1040
WIRE 11504 1184 11504 1040
WIRE 3936 1200 3936 1056
WIRE 4752 1200 4752 1056
WIRE 5632 1200 5632 1056
WIRE 256 1216 256 1088
WIRE 464 1216 464 1072
WIRE 816 1232 816 1136
WIRE 864 1232 816 1232
WIRE 976 1232 976 1184
WIRE 976 1232 928 1232
WIRE 7872 1232 7840 1232
WIRE 7904 1232 7872 1232
WIRE 8176 1232 7984 1232
WIRE 8400 1232 8176 1232
WIRE 8816 1232 8816 1136
WIRE 8880 1232 8816 1232
WIRE 8976 1232 8976 1184
WIRE 8976 1232 8944 1232
WIRE 10912 1232 10880 1232
WIRE 10944 1232 10912 1232
WIRE 11216 1232 11024 1232
WIRE 11440 1232 11216 1232
WIRE 12768 1232 12768 1136
WIRE 12832 1232 12768 1232
WIRE 12928 1232 12928 1184
WIRE 12928 1232 12896 1232
WIRE 3344 1248 3312 1248
WIRE 3376 1248 3344 1248
WIRE 3872 1248 3456 1248
WIRE 4448 1248 4448 1024
WIRE 4544 1248 4448 1248
WIRE 4688 1248 4544 1248
WIRE 5264 1248 5264 1024
WIRE 5360 1248 5264 1248
WIRE 5568 1248 5360 1248
WIRE 6144 1248 6144 1024
WIRE 6240 1248 6144 1248
WIRE 6464 1248 6240 1248
WIRE -128 1264 -160 1264
WIRE -96 1264 -128 1264
WIRE 128 1264 -16 1264
WIRE 192 1264 128 1264
WIRE 400 1264 352 1264
WIRE 976 1280 976 1232
WIRE 8288 1312 8288 1136
WIRE 12416 1312 12416 1136
WIRE 12928 1360 12928 1232
WIRE 12992 1360 12928 1360
WIRE 13024 1360 12992 1360
WIRE 8976 1392 8976 1232
WIRE 9072 1392 8976 1392
WIRE 9168 1392 9072 1392
WIRE 12016 1392 12016 1008
WIRE 12112 1392 12016 1392
WIRE 12208 1392 12112 1392
WIRE 976 1424 976 1360
WIRE 1136 1424 976 1424
WIRE 128 1440 128 1264
WIRE 352 1440 352 1264
WIRE 352 1440 128 1440
WIRE 976 1472 976 1424
WIRE 8288 1472 8288 1392
WIRE 12416 1472 12416 1392
WIRE 3936 1488 3936 1296
WIRE 4752 1488 4752 1296
WIRE 5632 1488 5632 1296
WIRE 8176 1520 8176 1232
WIRE 8224 1520 8176 1520
WIRE 11216 1520 11216 1232
WIRE 12352 1520 11216 1520
WIRE 8464 1600 8464 1280
WIRE 11504 1600 11504 1280
WIRE 8880 1632 8816 1632
WIRE 8976 1632 8976 1392
WIRE 8976 1632 8944 1632
WIRE 11920 1632 11856 1632
WIRE 12016 1632 12016 1392
WIRE 12016 1632 11984 1632
WIRE 4352 1648 4288 1648
WIRE 4448 1648 4448 1248
WIRE 4448 1648 4416 1648
WIRE 5168 1648 5104 1648
WIRE 5264 1648 5264 1248
WIRE 5264 1648 5232 1648
WIRE 6048 1648 5984 1648
WIRE 6144 1648 6144 1248
WIRE 6144 1648 6112 1648
WIRE 880 1664 816 1664
WIRE 976 1664 976 1552
WIRE 976 1664 944 1664
WIRE 8976 1680 8976 1632
WIRE 9168 1680 9168 1392
WIRE 12016 1680 12016 1632
WIRE 12208 1680 12208 1392
WIRE 4448 1696 4448 1648
WIRE 5264 1696 5264 1648
WIRE 6144 1696 6144 1648
WIRE 976 1712 976 1664
WIRE 8464 1728 8464 1680
WIRE 8656 1728 8464 1728
WIRE 8816 1728 8816 1632
WIRE 8816 1728 8736 1728
WIRE 8912 1728 8816 1728
WIRE 11504 1728 11504 1680
WIRE 11696 1728 11504 1728
WIRE 11856 1728 11856 1632
WIRE 11856 1728 11776 1728
WIRE 11952 1728 11856 1728
WIRE 3936 1744 3936 1568
WIRE 4128 1744 3936 1744
WIRE 4288 1744 4288 1648
WIRE 4288 1744 4208 1744
WIRE 4384 1744 4288 1744
WIRE 4752 1744 4752 1568
WIRE 4944 1744 4752 1744
WIRE 5104 1744 5104 1648
WIRE 5104 1744 5024 1744
WIRE 5200 1744 5104 1744
WIRE 5632 1744 5632 1568
WIRE 5824 1744 5632 1744
WIRE 5984 1744 5984 1648
WIRE 5984 1744 5904 1744
WIRE 6080 1744 5984 1744
WIRE 656 1760 608 1760
WIRE 816 1760 816 1664
WIRE 816 1760 736 1760
WIRE 912 1760 816 1760
WIRE 256 1776 256 1312
WIRE 8976 1808 8976 1776
WIRE 12016 1808 12016 1776
WIRE 4448 1824 4448 1792
WIRE 5264 1824 5264 1792
WIRE 6144 1824 6144 1792
WIRE 8288 1824 8288 1568
WIRE 12416 1824 12416 1568
WIRE 976 1840 976 1808
WIRE 12928 1856 12928 1360
WIRE 464 1888 464 1312
WIRE 8464 1984 8464 1728
WIRE 11504 1984 11504 1728
WIRE 464 2000 464 1968
WIRE 608 2000 608 1760
WIRE 608 2000 464 2000
WIRE 3936 2000 3936 1744
WIRE 4752 2000 4752 1744
WIRE 5632 2000 5632 1744
WIRE 464 2016 464 2000
WIRE 8032 2112 7856 2112
WIRE 8288 2112 8288 1904
WIRE 8288 2112 8032 2112
WIRE 8784 2112 8288 2112
WIRE 8896 2112 8784 2112
WIRE 9168 2112 9168 1744
WIRE 9168 2112 8896 2112
WIRE 9888 2112 9168 2112
WIRE 11072 2112 10896 2112
WIRE 11824 2112 11072 2112
WIRE 11936 2112 11824 2112
WIRE 12208 2112 12208 1744
WIRE 12208 2112 11936 2112
WIRE 12416 2112 12416 1904
WIRE 12416 2112 12208 2112
WIRE 12928 2112 12928 1936
WIRE 12928 2112 12416 2112
WIRE 3936 2128 3936 2080
WIRE 3936 2128 3328 2128
WIRE 4448 2128 4448 1904
WIRE 4448 2128 3936 2128
WIRE 4752 2128 4752 2080
WIRE 4752 2128 4448 2128
WIRE 5264 2128 5264 1904
WIRE 5264 2128 4752 2128
WIRE 5632 2128 5632 2080
WIRE 5632 2128 5264 2128
WIRE 6144 2128 6144 1904
WIRE 6144 2128 5632 2128
WIRE 6432 2128 6144 2128
WIRE 256 2144 256 1856
WIRE 256 2144 -144 2144
WIRE 464 2144 464 2096
WIRE 464 2144 256 2144
WIRE 976 2144 976 1920
WIRE 976 2144 464 2144
WIRE 1264 2144 976 2144
WIRE 7856 2160 7856 2112
WIRE 10896 2160 10896 2112
WIRE 3328 2176 3328 2128
WIRE -144 2192 -144 2144
WIRE 8896 2272 8896 2112
WIRE 11936 2272 11936 2112
WIRE 8032 2288 8032 2112
WIRE 11072 2288 11072 2112
WIRE 3440 2320 3376 2320
WIRE 3920 2320 3520 2320
WIRE 4432 2320 3920 2320
WIRE 4736 2320 4432 2320
WIRE 5248 2320 4736 2320
WIRE 5616 2320 5248 2320
WIRE 6128 2320 5616 2320
WIRE 6352 2320 6128 2320
WIRE 8784 2320 8784 2112
WIRE 8832 2320 8784 2320
WIRE 11824 2320 11824 2112
WIRE 11872 2320 11824 2320
WIRE 4736 2368 4736 2320
WIRE 8032 2464 8032 2368
WIRE 8464 2464 8464 2064
WIRE 8464 2464 8032 2464
WIRE 8704 2464 8464 2464
WIRE 8896 2464 8896 2368
WIRE 8896 2464 8784 2464
WIRE 8976 2464 8976 1888
WIRE 8976 2464 8896 2464
WIRE 11072 2464 11072 2368
WIRE 11504 2464 11504 2064
WIRE 11504 2464 11072 2464
WIRE 11744 2464 11504 2464
WIRE 11936 2464 11936 2368
WIRE 11936 2464 11824 2464
WIRE 12016 2464 12016 1888
WIRE 12016 2464 11936 2464
WIRE 4432 2496 4432 2320
WIRE 6128 2496 6128 2320
WIRE 3920 2528 3920 2320
WIRE 5616 2528 5616 2320
WIRE 5248 2544 5248 2320
WIRE 5248 2656 5248 2624
WIRE 4736 2704 4736 2448
WIRE 4928 2704 4736 2704
WIRE 5088 2704 5008 2704
WIRE 5184 2704 5088 2704
WIRE 3920 2752 3920 2608
WIRE 3328 2800 3296 2800
WIRE 3360 2800 3328 2800
WIRE 3856 2800 3440 2800
WIRE 5088 2800 5088 2704
WIRE 5152 2800 5088 2800
WIRE 5248 2800 5248 2752
WIRE 5248 2800 5216 2800
WIRE 6128 2800 6128 2576
WIRE 6224 2800 6128 2800
WIRE 6448 2800 6224 2800
WIRE 4736 2880 4736 2704
WIRE 5616 2880 5616 2608
WIRE 5248 2928 5248 2800
WIRE 5344 2928 5248 2928
WIRE 5552 2928 5344 2928
WIRE 3920 3040 3920 2848
WIRE 4736 3040 4736 2960
WIRE 5616 3040 5616 2976
WIRE 4432 3088 4432 2576
WIRE 4528 3088 4432 3088
WIRE 4672 3088 4528 3088
WIRE 4336 3200 4272 3200
WIRE 4432 3200 4432 3088
WIRE 4432 3200 4400 3200
WIRE 6032 3200 5968 3200
WIRE 6128 3200 6128 2800
WIRE 6128 3200 6096 3200
WIRE 4432 3248 4432 3200
WIRE 6128 3248 6128 3200
WIRE 3920 3296 3920 3120
WIRE 4112 3296 3920 3296
WIRE 4272 3296 4272 3200
WIRE 4272 3296 4192 3296
WIRE 4368 3296 4272 3296
WIRE 5616 3296 5616 3120
WIRE 5808 3296 5616 3296
WIRE 5968 3296 5968 3200
WIRE 5968 3296 5888 3296
WIRE 6064 3296 5968 3296
WIRE 4432 3376 4432 3344
WIRE 6128 3376 6128 3344
WIRE 4736 3392 4736 3136
WIRE 5248 3424 5248 2928
WIRE 3920 3552 3920 3296
WIRE 5616 3552 5616 3296
WIRE 3920 3680 3920 3632
WIRE 3920 3680 3312 3680
WIRE 4432 3680 4432 3456
WIRE 4432 3680 3920 3680
WIRE 4736 3680 4736 3472
WIRE 4736 3680 4432 3680
WIRE 5248 3680 5248 3504
WIRE 5248 3680 4736 3680
WIRE 5616 3680 5616 3632
WIRE 5616 3680 5248 3680
WIRE 6128 3680 6128 3456
WIRE 6128 3680 5616 3680
WIRE 6416 3680 6128 3680
WIRE 3312 3728 3312 3680
WIRE -1424 3936 -1968 3936
WIRE -1152 3936 -1424 3936
WIRE -880 3936 -1152 3936
WIRE -608 3936 -880 3936
WIRE -336 3936 -608 3936
WIRE -64 3936 -336 3936
WIRE 208 3936 -64 3936
WIRE 480 3936 208 3936
WIRE 592 3936 480 3936
WIRE -1424 3984 -1424 3936
WIRE -880 3984 -880 3936
WIRE -336 3984 -336 3936
WIRE 208 3984 208 3936
WIRE -1152 4096 -1152 3936
WIRE -608 4096 -608 3936
WIRE -64 4096 -64 3936
WIRE 480 4096 480 3936
WIRE 3424 4096 3360 4096
WIRE 3904 4096 3504 4096
WIRE 4416 4096 3904 4096
WIRE 5232 4096 4416 4096
WIRE 6112 4096 5232 4096
WIRE 6336 4096 6112 4096
WIRE -1424 4144 -1424 4064
WIRE -1312 4144 -1424 4144
WIRE -1216 4144 -1312 4144
WIRE -880 4144 -880 4064
WIRE -768 4144 -880 4144
WIRE -672 4144 -768 4144
WIRE -336 4144 -336 4064
WIRE -224 4144 -336 4144
WIRE -128 4144 -224 4144
WIRE 208 4144 208 4064
WIRE 320 4144 208 4144
WIRE 416 4144 320 4144
WIRE -1312 4240 -1312 4144
WIRE -1248 4240 -1312 4240
WIRE -1152 4240 -1152 4192
WIRE -1152 4240 -1184 4240
WIRE -768 4240 -768 4144
WIRE -704 4240 -768 4240
WIRE -608 4240 -608 4192
WIRE -608 4240 -640 4240
WIRE -224 4240 -224 4144
WIRE -160 4240 -224 4240
WIRE -64 4240 -64 4192
WIRE -64 4240 -96 4240
WIRE 320 4240 320 4144
WIRE 384 4240 320 4240
WIRE 480 4240 480 4192
WIRE 480 4240 448 4240
WIRE 4416 4272 4416 4096
WIRE 5232 4272 5232 4096
WIRE 6112 4272 6112 4096
WIRE 3904 4304 3904 4096
WIRE -1920 4352 -1968 4352
WIRE -1696 4352 -1920 4352
WIRE -1424 4352 -1424 4144
WIRE -880 4352 -880 4144
WIRE -336 4352 -336 4144
WIRE 208 4352 208 4144
WIRE 480 4352 480 4240
WIRE 816 4352 480 4352
WIRE -1696 4400 -1696 4352
WIRE -1152 4400 -1152 4240
WIRE -608 4400 -608 4240
WIRE -64 4400 -64 4240
WIRE 480 4400 480 4352
WIRE 3904 4528 3904 4384
WIRE 3312 4576 3280 4576
WIRE 3344 4576 3312 4576
WIRE 3840 4576 3424 4576
WIRE 4416 4576 4416 4352
WIRE 4512 4576 4416 4576
WIRE 4720 4576 4512 4576
WIRE 5232 4576 5232 4352
WIRE 5328 4576 5232 4576
WIRE 5600 4576 5328 4576
WIRE 6112 4576 6112 4352
WIRE 6208 4576 6112 4576
WIRE 6432 4576 6208 4576
WIRE -1520 4592 -1584 4592
WIRE -1424 4592 -1424 4432
WIRE -1424 4592 -1456 4592
WIRE -976 4592 -1040 4592
WIRE -880 4592 -880 4432
WIRE -880 4592 -912 4592
WIRE -432 4592 -496 4592
WIRE -336 4592 -336 4432
WIRE -336 4592 -368 4592
WIRE 112 4592 48 4592
WIRE 208 4592 208 4432
WIRE 208 4592 176 4592
WIRE -1424 4640 -1424 4592
WIRE -880 4640 -880 4592
WIRE -336 4640 -336 4592
WIRE 208 4640 208 4592
WIRE -1696 4688 -1696 4480
WIRE -1584 4688 -1584 4592
WIRE -1584 4688 -1696 4688
WIRE -1488 4688 -1584 4688
WIRE -1152 4688 -1152 4480
WIRE -1040 4688 -1040 4592
WIRE -1040 4688 -1152 4688
WIRE -944 4688 -1040 4688
WIRE -608 4688 -608 4480
WIRE -496 4688 -496 4592
WIRE -496 4688 -608 4688
WIRE -400 4688 -496 4688
WIRE -64 4688 -64 4480
WIRE 48 4688 48 4592
WIRE 48 4688 -64 4688
WIRE 144 4688 48 4688
WIRE -1696 4768 -1696 4688
WIRE -1152 4768 -1152 4688
WIRE -608 4768 -608 4688
WIRE -64 4768 -64 4688
WIRE 480 4768 480 4480
WIRE 3904 4816 3904 4624
WIRE 4720 4816 4720 4576
WIRE 5232 4816 5232 4576
WIRE 5600 4816 5600 4576
WIRE -1696 4896 -1696 4848
WIRE -1696 4896 -1952 4896
WIRE -1424 4896 -1424 4736
WIRE -1424 4896 -1696 4896
WIRE -1152 4896 -1152 4848
WIRE -1152 4896 -1424 4896
WIRE -880 4896 -880 4736
WIRE -880 4896 -1152 4896
WIRE -608 4896 -608 4848
WIRE -608 4896 -880 4896
WIRE -336 4896 -336 4736
WIRE -336 4896 -608 4896
WIRE -64 4896 -64 4848
WIRE -64 4896 -336 4896
WIRE 208 4896 208 4736
WIRE 208 4896 -64 4896
WIRE 480 4896 480 4848
WIRE 480 4896 208 4896
WIRE 688 4896 480 4896
WIRE -1952 4976 -1952 4896
WIRE 4320 4976 4256 4976
WIRE 4416 4976 4416 4576
WIRE 4416 4976 4384 4976
WIRE 5136 4976 5072 4976
WIRE 5232 4976 5232 4896
WIRE 5232 4976 5200 4976
WIRE 6016 4976 5952 4976
WIRE 6112 4976 6112 4576
WIRE 6112 4976 6080 4976
WIRE 4416 5024 4416 4976
WIRE 5232 5024 5232 4976
WIRE 6112 5024 6112 4976
WIRE 3904 5072 3904 4896
WIRE 4096 5072 3904 5072
WIRE 4256 5072 4256 4976
WIRE 4256 5072 4176 5072
WIRE 4352 5072 4256 5072
WIRE 4720 5072 4720 4896
WIRE 4912 5072 4720 5072
WIRE 5072 5072 5072 4976
WIRE 5072 5072 4992 5072
WIRE 5168 5072 5072 5072
WIRE 5600 5072 5600 4896
WIRE 5792 5072 5600 5072
WIRE 5952 5072 5952 4976
WIRE 5952 5072 5872 5072
WIRE 6048 5072 5952 5072
WIRE 4416 5152 4416 5120
WIRE 5232 5152 5232 5120
WIRE 6112 5152 6112 5120
WIRE 3904 5328 3904 5072
WIRE 4720 5328 4720 5072
WIRE 5600 5328 5600 5072
WIRE 3904 5456 3904 5408
WIRE 3904 5456 3296 5456
WIRE 4416 5456 4416 5232
WIRE 4416 5456 3904 5456
WIRE 4720 5456 4720 5408
WIRE 4720 5456 4416 5456
WIRE 5232 5456 5232 5232
WIRE 5232 5456 4720 5456
WIRE 5600 5456 5600 5408
WIRE 5600 5456 5232 5456
WIRE 6112 5456 6112 5232
WIRE 6112 5456 5600 5456
WIRE 6400 5456 6112 5456
WIRE 3296 5504 3296 5456
WIRE 2896 6016 2832 6016
WIRE 3376 6016 2976 6016
WIRE 3888 6016 3376 6016
WIRE 4448 6016 3888 6016
WIRE 5232 6016 4448 6016
WIRE 6112 6016 5232 6016
WIRE 6944 6016 6112 6016
WIRE 7168 6016 6944 6016
WIRE 3888 6192 3888 6016
WIRE 5232 6192 5232 6016
WIRE 6112 6192 6112 6016
WIRE 6944 6192 6944 6016
WIRE 3376 6224 3376 6016
WIRE 3376 6448 3376 6304
WIRE 2784 6496 2752 6496
WIRE 2816 6496 2784 6496
WIRE 3312 6496 2896 6496
WIRE 3888 6496 3888 6272
WIRE 3984 6496 3888 6496
WIRE 4576 6496 3984 6496
WIRE 4720 6496 4576 6496
WIRE 5232 6496 5232 6272
WIRE 5328 6496 5232 6496
WIRE 5600 6496 5328 6496
WIRE 6112 6496 6112 6272
WIRE 6208 6496 6112 6496
WIRE 6432 6496 6208 6496
WIRE 6944 6496 6944 6272
WIRE 7040 6496 6944 6496
WIRE 7264 6496 7040 6496
WIRE 3376 6736 3376 6544
WIRE 4720 6736 4720 6496
WIRE 5232 6736 5232 6496
WIRE 5600 6736 5600 6496
WIRE 6432 6736 6432 6496
WIRE 4448 6800 4448 6016
WIRE 4032 6848 3936 6848
WIRE 4384 6848 4032 6848
WIRE 3792 6896 3728 6896
WIRE 3888 6896 3888 6496
WIRE 3888 6896 3856 6896
WIRE 5136 6896 5072 6896
WIRE 5232 6896 5232 6816
WIRE 5232 6896 5200 6896
WIRE 6016 6896 5952 6896
WIRE 6112 6896 6112 6496
WIRE 6112 6896 6080 6896
WIRE 6848 6896 6784 6896
WIRE 6944 6896 6944 6496
WIRE 6944 6896 6912 6896
WIRE 3888 6944 3888 6896
WIRE 5232 6944 5232 6896
WIRE 6112 6944 6112 6896
WIRE 6944 6944 6944 6896
WIRE 3376 6992 3376 6816
WIRE 3568 6992 3376 6992
WIRE 3728 6992 3728 6896
WIRE 3728 6992 3648 6992
WIRE 3824 6992 3728 6992
WIRE 4720 6992 4720 6816
WIRE 4912 6992 4720 6992
WIRE 5072 6992 5072 6896
WIRE 5072 6992 4992 6992
WIRE 5168 6992 5072 6992
WIRE 5600 6992 5600 6816
WIRE 5792 6992 5600 6992
WIRE 5952 6992 5952 6896
WIRE 5952 6992 5872 6992
WIRE 6048 6992 5952 6992
WIRE 6432 6992 6432 6816
WIRE 6624 6992 6432 6992
WIRE 6784 6992 6784 6896
WIRE 6784 6992 6704 6992
WIRE 6880 6992 6784 6992
WIRE 3888 7072 3888 7040
WIRE 5232 7072 5232 7040
WIRE 6112 7072 6112 7040
WIRE 6944 7072 6944 7040
WIRE 4576 7168 4576 6496
WIRE 4080 7216 3984 7216
WIRE 4224 7216 4160 7216
WIRE 4448 7216 4448 6896
WIRE 4448 7216 4224 7216
WIRE 4512 7216 4448 7216
WIRE 3376 7248 3376 6992
WIRE 4720 7248 4720 6992
WIRE 5600 7248 5600 6992
WIRE 6432 7248 6432 6992
WIRE 4224 7264 4224 7216
WIRE 3376 7376 3376 7328
WIRE 3376 7376 2768 7376
WIRE 3888 7376 3888 7152
WIRE 3888 7376 3376 7376
WIRE 4224 7376 4224 7344
WIRE 4224 7376 3888 7376
WIRE 4576 7376 4576 7264
WIRE 4576 7376 4224 7376
WIRE 4720 7376 4720 7328
WIRE 4720 7376 4576 7376
WIRE 5232 7376 5232 7152
WIRE 5232 7376 4720 7376
WIRE 5600 7376 5600 7328
WIRE 5600 7376 5232 7376
WIRE 6112 7376 6112 7152
WIRE 6112 7376 5600 7376
WIRE 6432 7376 6432 7328
WIRE 6432 7376 6112 7376
WIRE 6944 7376 6944 7152
WIRE 6944 7376 6432 7376
WIRE 7232 7376 6944 7376
WIRE 2768 7424 2768 7376
WIRE 2224 7552 2160 7552
WIRE 2704 7552 2304 7552
WIRE 3376 7552 2704 7552
WIRE 4208 7552 3376 7552
WIRE 4432 7552 4208 7552
WIRE 3376 7728 3376 7552
WIRE 4208 7728 4208 7552
WIRE 2704 7760 2704 7552
WIRE 2704 7984 2704 7840
WIRE 2112 8032 2080 8032
WIRE 2144 8032 2112 8032
WIRE 2640 8032 2224 8032
WIRE 3376 8032 3376 7808
WIRE 3696 8032 3376 8032
WIRE 4208 8032 4208 7808
WIRE 4304 8032 4208 8032
WIRE 4528 8032 4304 8032
WIRE 2704 8272 2704 8080
WIRE 3696 8272 3696 8032
WIRE 3280 8432 3216 8432
WIRE 3376 8432 3376 8032
WIRE 3376 8432 3344 8432
WIRE 4112 8432 4048 8432
WIRE 4208 8432 4208 8032
WIRE 4208 8432 4176 8432
WIRE 3376 8480 3376 8432
WIRE 4208 8480 4208 8432
WIRE 2704 8528 2704 8352
WIRE 2896 8528 2704 8528
WIRE 3216 8528 3216 8432
WIRE 3216 8528 2976 8528
WIRE 3312 8528 3216 8528
WIRE 3696 8528 3696 8352
WIRE 3888 8528 3696 8528
WIRE 4048 8528 4048 8432
WIRE 4048 8528 3968 8528
WIRE 4144 8528 4048 8528
WIRE 3376 8608 3376 8576
WIRE 4208 8608 4208 8576
WIRE 2704 8784 2704 8528
WIRE 3696 8784 3696 8528
WIRE 2704 8912 2704 8864
WIRE 2704 8912 2096 8912
WIRE 3376 8912 3376 8688
WIRE 3376 8912 2704 8912
WIRE 3696 8912 3696 8864
WIRE 3696 8912 3376 8912
WIRE 4208 8912 4208 8688
WIRE 4208 8912 3696 8912
WIRE 4496 8912 4208 8912
WIRE 2096 8960 2096 8912
WIRE 2208 9184 2144 9184
WIRE 2688 9184 2288 9184
WIRE 3360 9184 2688 9184
WIRE 4192 9184 3360 9184
WIRE 4416 9184 4192 9184
WIRE 3360 9360 3360 9184
WIRE 4192 9360 4192 9184
WIRE 2688 9392 2688 9184
WIRE 2688 9616 2688 9472
WIRE 2096 9664 2064 9664
WIRE 2128 9664 2096 9664
WIRE 2624 9664 2208 9664
WIRE 3360 9664 3360 9440
WIRE 3680 9664 3360 9664
WIRE 4192 9664 4192 9440
WIRE 4288 9664 4192 9664
WIRE 4512 9664 4288 9664
WIRE 2688 9904 2688 9712
WIRE 3680 9904 3680 9664
WIRE 3264 10064 3200 10064
WIRE 3360 10064 3360 9664
WIRE 3360 10064 3328 10064
WIRE 4096 10064 4032 10064
WIRE 4192 10064 4192 9664
WIRE 4192 10064 4160 10064
WIRE 3360 10112 3360 10064
WIRE 4192 10112 4192 10064
WIRE 2688 10160 2688 9984
WIRE 2880 10160 2688 10160
WIRE 3200 10160 3200 10064
WIRE 3200 10160 2960 10160
WIRE 3296 10160 3200 10160
WIRE 3680 10160 3680 9984
WIRE 3872 10160 3680 10160
WIRE 4032 10160 4032 10064
WIRE 4032 10160 3952 10160
WIRE 4128 10160 4032 10160
WIRE 3360 10240 3360 10208
WIRE 4192 10240 4192 10208
WIRE 2688 10416 2688 10160
WIRE 3680 10416 3680 10160
WIRE 2688 10544 2688 10496
WIRE 2688 10544 2080 10544
WIRE 3360 10544 3360 10320
WIRE 3360 10544 2688 10544
WIRE 3680 10544 3680 10496
WIRE 3680 10544 3360 10544
WIRE 4192 10544 4192 10320
WIRE 4192 10544 3680 10544
WIRE 4480 10544 4192 10544
WIRE 2080 10592 2080 10544
FLAG -528 128 0
FLAG 352 0 BIT0
FLAG -528 0 VCC
FLAG 272 0 0
FLAG 352 160 BIT1
FLAG 272 160 0
FLAG 352 304 BIT2
FLAG 272 304 0
FLAG 352 448 BIT3
FLAG 272 448 0
FLAG 352 592 BIT4
FLAG 272 592 0
FLAG 1312 80 BIT0
FLAG 1312 160 0
FLAG 1472 80 BIT1
FLAG 1472 160 0
FLAG 1632 80 BIT2
FLAG 1632 160 0
FLAG 1792 80 BIT3
FLAG 1792 160 0
FLAG 1952 80 BIT4
FLAG 1952 160 0
FLAG -144 2192 0
FLAG -128 1264 BIT0
FLAG -80 784 VCC
FLAG 7856 2160 0
FLAG 9072 1392 OUT_comp
FLAG 7872 1232 BIT0
FLAG 7856 752 VCC
FLAG 3328 2176 0
FLAG 4544 1248 OUT3a
FLAG 3344 1248 BIT0
FLAG 3392 768 VCC
FLAG 5360 1248 OUT3b
FLAG 6240 1248 OUT3c
FLAG 3312 3728 0
FLAG 4528 3088 OUT4a
FLAG 3328 2800 BIT0
FLAG 3376 2320 VCC
FLAG 5344 2928 OUT4b
FLAG 6224 2800 OUT4c
FLAG 3296 5504 0
FLAG 4512 4576 OUT5a
FLAG 3312 4576 BIT0
FLAG 3360 4096 VCC
FLAG 5328 4576 OUT5b
FLAG 6208 4576 OUT5c
FLAG 2768 7424 0
FLAG 3984 6496 OUT6a
FLAG 2784 6496 BIT0
FLAG 2832 6016 VCC
FLAG 5328 6496 OUT6b
FLAG 6208 6496 OUT6c
FLAG 7040 6496 OUT6d
FLAG 3984 7216 BIT1b
FLAG 4032 6848 BIT2b
FLAG 4304 8032 BIT1b
FLAG 2096 8960 0
FLAG 2112 8032 BIT1
FLAG 2160 7552 VCC
FLAG 4288 9664 BIT2b
FLAG 2080 10592 0
FLAG 2096 9664 BIT2
FLAG 2144 9184 VCC
FLAG 10896 2160 0
FLAG 12112 1392 out_npn
FLAG 10912 1232 BIT0
FLAG 10896 752 VCC
FLAG 12992 1360 out_pnp
FLAG -1968 3936 VCC
FLAG -1920 4352 BIT0
FLAG -1952 4976 0
SYMBOL voltage -528 16 R0
WINDOW 123 0 0 Left 0
WINDOW 39 0 0 Left 0
SYMATTR InstName VCC
SYMATTR Value {VCC}
SYMBOL voltage 368 0 R90
WINDOW 123 -77 30 VRight 2
WINDOW 39 0 0 Left 0
WINDOW 0 -51 28 VRight 2
WINDOW 3 46 -379 VRight 2
SYMATTR Value2 AC 5
SYMATTR InstName V_BIT0
SYMATTR Value PULSE(0 {VCC} 0 {rise} {rise} {1/freq/2-rise} {1/freq} {16*reps})
SYMBOL voltage 368 160 R90
WINDOW 123 -77 30 VRight 2
WINDOW 39 0 0 Left 0
WINDOW 0 -51 28 VRight 2
WINDOW 3 46 -379 VRight 2
SYMATTR InstName V_BIT1
SYMATTR Value PULSE(0 {VCC} 0 {rise} {rise} {2*1/freq/2-rise} {2*1/freq} {8*reps})
SYMBOL voltage 368 304 R90
WINDOW 123 -77 30 VRight 2
WINDOW 39 0 0 Left 0
WINDOW 0 -51 28 VRight 2
WINDOW 3 46 -379 VRight 2
SYMATTR InstName V_BIT2
SYMATTR Value PULSE(0 {VCC} 0 {rise} {rise} {4*1/freq/2-rise} {4*1/freq} {4*reps})
SYMBOL voltage 368 448 R90
WINDOW 123 -77 30 VRight 2
WINDOW 39 0 0 Left 0
WINDOW 0 -51 28 VRight 2
WINDOW 3 46 -379 VRight 2
SYMATTR InstName V_BIT3
SYMATTR Value PULSE(0 {VCC} 0 {rise} {rise} {8*1/freq/2-rise} {8*1/freq} {2*reps})
SYMBOL voltage 368 592 R90
WINDOW 123 -77 30 VRight 2
WINDOW 39 0 0 Left 0
WINDOW 0 -51 28 VRight 2
WINDOW 3 46 -379 VRight 2
SYMATTR InstName V_BIT4
SYMATTR Value PULSE(0 {VCC} 0 {rise} {rise} {16*1/freq/2-rise} {16*1/freq} {1*reps})
SYMBOL res 1296 64 R0
SYMATTR InstName R1
SYMATTR Value 10Mega
SYMBOL res 1456 64 R0
SYMATTR InstName R2
SYMATTR Value 10Mega
SYMBOL res 1616 64 R0
SYMATTR InstName R3
SYMATTR Value 10Mega
SYMBOL res 1776 64 R0
SYMATTR InstName R4
SYMATTR Value 10Mega
SYMBOL res 1936 64 R0
SYMATTR InstName R5
SYMATTR Value 10Mega
SYMBOL res 640 1776 R270
WINDOW 0 32 56 VTop 2
WINDOW 3 0 56 VBottom 2
SYMATTR InstName R23
SYMATTR Value 1m
SYMBOL npn 912 1712 R0
SYMATTR InstName Q13
SYMATTR Value 2N3904
SYMBOL schottky 880 1680 R270
WINDOW 0 32 32 VTop 2
WINDOW 3 0 32 VBottom 2
SYMATTR InstName D5
SYMATTR Value BAT54
SYMATTR Description Diode
SYMATTR Type diode
SYMBOL pnp 912 1184 M180
SYMATTR InstName Q30
SYMATTR Value 2N3906
SYMBOL schottky 928 1216 R90
WINDOW 0 0 32 VBottom 2
WINDOW 3 32 32 VTop 2
SYMATTR InstName D6
SYMATTR Value BAT54
SYMATTR Description Diode
SYMATTR Type diode
SYMBOL res 768 1120 R90
WINDOW 0 0 56 VBottom 2
WINDOW 3 32 56 VTop 2
SYMATTR InstName R27
SYMATTR Value 1m
SYMBOL res -32 800 R270
WINDOW 0 32 56 VTop 2
WINDOW 3 0 56 VBottom 2
SYMATTR InstName R31
SYMATTR Value 1m
SYMBOL res -112 1280 R270
WINDOW 0 32 56 VTop 2
WINDOW 3 0 56 VBottom 2
SYMATTR InstName R84
SYMATTR Value 1m
SYMBOL npn 400 1216 R0
SYMATTR InstName Q31
SYMATTR Value 2N3904
SYMBOL pnp 192 1312 M180
SYMATTR InstName Q32
SYMATTR Value 2N3906
SYMBOL res 448 976 R0
SYMATTR InstName R87
SYMATTR Value 1m
SYMBOL res 960 960 R0
SYMATTR InstName R88
SYMATTR Value 1m
SYMBOL res 240 1760 R0
SYMATTR InstName R89
SYMATTR Value 1m
SYMBOL res 960 1824 R0
SYMATTR InstName R90
SYMATTR Value 1m
SYMBOL res 960 1264 R0
SYMATTR InstName R91
SYMATTR Value {Rout}
SYMBOL res 960 1456 R0
SYMATTR InstName R92
SYMATTR Value {Rout}
SYMBOL res 448 1872 R0
SYMATTR InstName R243
SYMATTR Value {Rin*10}
SYMBOL res 240 992 R0
SYMATTR InstName R244
SYMATTR Value {Rin*10}
SYMBOL res 240 832 R0
SYMATTR InstName R245
SYMATTR Value {Rin}
SYMBOL res 448 2000 R0
SYMATTR InstName R246
SYMATTR Value {Rin}
SYMBOL res 8640 1744 R270
WINDOW 0 32 56 VTop 2
WINDOW 3 0 56 VBottom 2
SYMATTR InstName R6
SYMATTR Value 1m
SYMBOL npn 8912 1680 R0
SYMATTR InstName Q1
SYMATTR Value 2N3904
SYMBOL schottky 8880 1648 R270
WINDOW 0 32 32 VTop 2
WINDOW 3 0 32 VBottom 2
SYMATTR InstName D1
SYMATTR Value BAT54
SYMATTR Description Diode
SYMATTR Type diode
SYMBOL res 7904 768 R270
WINDOW 0 32 56 VTop 2
WINDOW 3 0 56 VBottom 2
SYMATTR InstName R8
SYMATTR Value 1m
SYMBOL res 7888 1248 R270
WINDOW 0 32 56 VTop 2
WINDOW 3 0 56 VBottom 2
SYMATTR InstName R9
SYMATTR Value 1m
SYMBOL npn 8400 1184 R0
SYMATTR InstName Q3
SYMATTR Value 2N3904
SYMBOL res 8448 944 R0
SYMATTR InstName R10
SYMATTR Value 1m
SYMBOL res 8960 1792 R0
SYMATTR InstName R13
SYMATTR Value 1m
SYMBOL res 8448 1584 R0
SYMATTR InstName R16
SYMATTR Value {Rin*6}
SYMBOL res 8448 1968 R0
SYMATTR InstName R19
SYMATTR Value {Rin*6}
SYMBOL cap 9152 1680 R0
SYMATTR InstName C1
SYMATTR Value 50p
SYMBOL res 4112 1760 R270
WINDOW 0 32 56 VTop 2
WINDOW 3 0 56 VBottom 2
SYMATTR InstName R7
SYMATTR Value 1m
SYMBOL npn 4384 1696 R0
SYMATTR InstName Q2
SYMATTR Value 2N3904
SYMBOL schottky 4352 1664 R270
WINDOW 0 32 32 VTop 2
WINDOW 3 0 32 VBottom 2
SYMATTR InstName D2
SYMATTR Value BAT54
SYMATTR Description Diode
SYMATTR Type diode
SYMBOL res 3440 784 R270
WINDOW 0 32 56 VTop 2
WINDOW 3 0 56 VBottom 2
SYMATTR InstName R11
SYMATTR Value 1m
SYMBOL res 3360 1264 R270
WINDOW 0 32 56 VTop 2
WINDOW 3 0 56 VBottom 2
SYMATTR InstName R12
SYMATTR Value 1m
SYMBOL npn 3872 1200 R0
SYMATTR InstName Q4
SYMATTR Value 2N3904
SYMBOL res 3920 960 R0
SYMATTR InstName R14
SYMATTR Value 1m
SYMBOL res 4432 1808 R0
SYMATTR InstName R17
SYMATTR Value 1m
SYMBOL res 4432 928 R0
SYMATTR InstName R18
SYMATTR Value {Rout_pull}
SYMBOL res 3920 1472 R0
SYMATTR InstName R20
SYMATTR Value {Rin*6}
SYMBOL res 3920 1984 R0
SYMATTR InstName R21
SYMATTR Value {Rin*3}
SYMBOL res 4928 1760 R270
WINDOW 0 32 56 VTop 2
WINDOW 3 0 56 VBottom 2
SYMATTR InstName R22
SYMATTR Value 1m
SYMBOL npn 5200 1696 R0
SYMATTR InstName Q5
SYMATTR Value 2N3904
SYMBOL schottky 5168 1664 R270
WINDOW 0 32 32 VTop 2
WINDOW 3 0 32 VBottom 2
SYMATTR InstName D3
SYMATTR Value BAT54
SYMATTR Description Diode
SYMATTR Type diode
SYMBOL npn 4688 1200 R0
SYMATTR InstName Q6
SYMATTR Value 2N3904
SYMBOL res 4736 960 R0
SYMATTR InstName R24
SYMATTR Value 1m
SYMBOL res 5248 1808 R0
SYMATTR InstName R25
SYMATTR Value 1m
SYMBOL res 5248 928 R0
SYMATTR InstName R26
SYMATTR Value {Rout_pull}
SYMBOL res 4736 1472 R0
SYMATTR InstName R28
SYMATTR Value {Rin*6}
SYMBOL res 4736 1984 R0
SYMATTR InstName R29
SYMATTR Value {Rin*3}
SYMBOL res 5808 1760 R270
WINDOW 0 32 56 VTop 2
WINDOW 3 0 56 VBottom 2
SYMATTR InstName R30
SYMATTR Value 1m
SYMBOL npn 6080 1696 R0
SYMATTR InstName Q7
SYMATTR Value 2N3904
SYMBOL schottky 6048 1664 R270
WINDOW 0 32 32 VTop 2
WINDOW 3 0 32 VBottom 2
SYMATTR InstName D4
SYMATTR Value BAT54
SYMATTR Description Diode
SYMATTR Type diode
SYMBOL npn 5568 1200 R0
SYMATTR InstName Q8
SYMATTR Value 2N3904
SYMBOL res 5616 960 R0
SYMATTR InstName R32
SYMATTR Value 1m
SYMBOL res 6128 1808 R0
SYMATTR InstName R33
SYMATTR Value 1m
SYMBOL res 6128 928 R0
SYMATTR InstName R34
SYMATTR Value {Rout_pull}
SYMBOL res 5616 1472 R0
SYMATTR InstName R35
SYMATTR Value {Rin*6}
SYMBOL res 5616 1984 R0
SYMATTR InstName R36
SYMATTR Value {Rin*3}
SYMBOL res 4096 3312 R270
WINDOW 0 32 56 VTop 2
WINDOW 3 0 56 VBottom 2
SYMATTR InstName R37
SYMATTR Value 1m
SYMBOL npn 4368 3248 R0
SYMATTR InstName Q9
SYMATTR Value 2N3904
SYMBOL schottky 4336 3216 R270
WINDOW 0 32 32 VTop 2
WINDOW 3 0 32 VBottom 2
SYMATTR InstName D7
SYMATTR Value BAT54
SYMATTR Description Diode
SYMATTR Type diode
SYMBOL res 3424 2336 R270
WINDOW 0 32 56 VTop 2
WINDOW 3 0 56 VBottom 2
SYMATTR InstName R38
SYMATTR Value 1m
SYMBOL res 3344 2816 R270
WINDOW 0 32 56 VTop 2
WINDOW 3 0 56 VBottom 2
SYMATTR InstName R39
SYMATTR Value 1m
SYMBOL npn 3856 2752 R0
SYMATTR InstName Q10
SYMATTR Value 2N3904
SYMBOL res 3904 2512 R0
SYMATTR InstName R40
SYMATTR Value 1m
SYMBOL res 4416 3360 R0
SYMATTR InstName R41
SYMATTR Value 1m
SYMBOL res 4416 2480 R0
SYMATTR InstName R42
SYMATTR Value {Rout_pull}
SYMBOL res 3904 3024 R0
SYMATTR InstName R43
SYMATTR Value {Rin*6}
SYMBOL res 3904 3536 R0
SYMATTR InstName R44
SYMATTR Value {Rin*3}
SYMBOL res 4912 2688 M90
WINDOW 0 0 56 VBottom 2
WINDOW 3 32 56 VTop 2
SYMATTR InstName R45
SYMATTR Value 1m
SYMBOL schottky 5216 2784 R90
WINDOW 0 0 32 VBottom 2
WINDOW 3 32 32 VTop 2
SYMATTR InstName D8
SYMATTR Value BAT54
SYMATTR Description Diode
SYMATTR Type diode
SYMBOL res 4720 3488 M180
WINDOW 0 36 76 Left 2
WINDOW 3 36 40 Left 2
SYMATTR InstName R46
SYMATTR Value 1m
SYMBOL res 5232 2640 M180
WINDOW 0 36 76 Left 2
WINDOW 3 36 40 Left 2
SYMATTR InstName R47
SYMATTR Value 1m
SYMBOL res 5232 3520 M180
WINDOW 0 36 76 Left 2
WINDOW 3 36 40 Left 2
SYMATTR InstName R48
SYMATTR Value {Rout_pull}
SYMBOL res 4720 2976 M180
WINDOW 0 36 76 Left 2
WINDOW 3 36 40 Left 2
SYMATTR InstName R49
SYMATTR Value {Rin*6}
SYMBOL res 4720 2464 M180
WINDOW 0 36 76 Left 2
WINDOW 3 36 40 Left 2
SYMATTR InstName R50
SYMATTR Value {Rin*3}
SYMBOL res 5792 3312 R270
WINDOW 0 32 56 VTop 2
WINDOW 3 0 56 VBottom 2
SYMATTR InstName R51
SYMATTR Value 1m
SYMBOL npn 6064 3248 R0
SYMATTR InstName Q14
SYMATTR Value 2N3904
SYMBOL schottky 6032 3216 R270
WINDOW 0 32 32 VTop 2
WINDOW 3 0 32 VBottom 2
SYMATTR InstName D9
SYMATTR Value BAT54
SYMATTR Description Diode
SYMATTR Type diode
SYMBOL npn 5552 2880 R0
SYMATTR InstName Q15
SYMATTR Value 2N3904
SYMBOL res 5600 2512 R0
SYMATTR InstName R52
SYMATTR Value 1m
SYMBOL res 6112 3360 R0
SYMATTR InstName R53
SYMATTR Value 1m
SYMBOL res 6112 2480 R0
SYMATTR InstName R54
SYMATTR Value {Rout_pull}
SYMBOL res 5600 3024 R0
SYMATTR InstName R55
SYMATTR Value {Rin*6}
SYMBOL res 5600 3536 R0
SYMATTR InstName R56
SYMATTR Value {Rin*3}
SYMBOL pnp 5184 2752 M180
SYMATTR InstName Q11
SYMATTR Value 2N3906
SYMBOL pnp 4672 3136 M180
SYMATTR InstName Q12