Version 4
SHEET 1 37460 9492
WIRE 1024 3584 928 3584
WIRE 928 3600 928 3584
WIRE 928 3600 896 3600
WIRE 1024 3600 960 3600
WIRE 672 3616 608 3616
WIRE 832 3616 752 3616
WIRE 1024 3616 976 3616
WIRE 1152 3616 1088 3616
WIRE 1200 3616 1152 3616
WIRE 832 3632 800 3632
WIRE 4448 3648 4224 3648
WIRE 5696 3648 4448 3648
WIRE 8704 3648 5696 3648
WIRE 12352 3648 8704 3648
WIRE 14768 3648 12352 3648
WIRE 976 3664 976 3616
WIRE 1152 3664 1152 3616
WIRE 4480 3696 4224 3696
WIRE 6192 3696 4480 3696
WIRE 7488 3696 6192 3696
WIRE 9920 3696 7488 3696
WIRE 11136 3696 9920 3696
WIRE 13568 3696 11136 3696
WIRE 14768 3696 13568 3696
WIRE 832 3712 784 3712
WIRE 960 3712 960 3600
WIRE 960 3712 896 3712
WIRE 832 3728 816 3728
WIRE 976 3744 1152 3664
WIRE 1152 3744 976 3664
WIRE 4320 3776 4224 3776
WIRE 4592 3776 4400 3776
WIRE 4864 3776 4592 3776
WIRE 5040 3776 4864 3776
WIRE 5344 3776 5040 3776
WIRE 5808 3776 5344 3776
WIRE 6080 3776 5808 3776
WIRE 6304 3776 6080 3776
WIRE 6576 3776 6304 3776
WIRE 6832 3776 6576 3776
WIRE 7136 3776 6832 3776
WIRE 7872 3776 7136 3776
WIRE 8048 3776 7872 3776
WIRE 8352 3776 8048 3776
WIRE 9088 3776 8352 3776
WIRE 9264 3776 9088 3776
WIRE 9568 3776 9264 3776
WIRE 10304 3776 9568 3776
WIRE 10480 3776 10304 3776
WIRE 10784 3776 10480 3776
WIRE 11520 3776 10784 3776
WIRE 11696 3776 11520 3776
WIRE 12000 3776 11696 3776
WIRE 12736 3776 12000 3776
WIRE 12912 3776 12736 3776
WIRE 13216 3776 12912 3776
WIRE 13952 3776 13216 3776
WIRE 14128 3776 13952 3776
WIRE 14432 3776 14128 3776
WIRE 4592 3792 4592 3776
WIRE 5808 3792 5808 3776
WIRE 6304 3792 6304 3776
WIRE 976 3808 976 3744
WIRE 1024 3808 976 3808
WIRE -1168 3824 -1168 3792
WIRE 1024 3824 928 3824
WIRE -736 3840 -736 3808
WIRE -560 3840 -560 3808
WIRE 672 3840 752 3616
WIRE 672 3840 608 3840
WIRE 752 3840 672 3616
WIRE 768 3840 752 3840
WIRE 1024 3840 944 3840
WIRE 1152 3840 1152 3744
WIRE 1152 3840 1088 3840
WIRE 1200 3840 1152 3840
WIRE 4864 3840 4864 3776
WIRE 6080 3840 6080 3776
WIRE 6576 3840 6576 3776
WIRE 6832 3840 6832 3776
WIRE 7872 3840 7872 3776
WIRE 9088 3840 9088 3776
WIRE 10304 3840 10304 3776
WIRE 11520 3840 11520 3776
WIRE 12736 3840 12736 3776
WIRE 13952 3840 13952 3776
WIRE 768 3872 768 3840
WIRE 832 3872 768 3872
WIRE 928 3872 928 3824
WIRE 928 3872 896 3872
WIRE 5344 3872 5344 3776
WIRE 7136 3872 7136 3776
WIRE 8352 3872 8352 3776
WIRE 9568 3872 9568 3776
WIRE 10784 3872 10784 3776
WIRE 12000 3872 12000 3776
WIRE 13216 3872 13216 3776
WIRE 14432 3872 14432 3776
WIRE 800 3888 800 3632
WIRE 800 3888 608 3888
WIRE 832 3888 800 3888
WIRE 4592 3888 4592 3872
WIRE 4720 3888 4592 3888
WIRE 4800 3888 4720 3888
WIRE 5808 3888 5808 3872
WIRE 5936 3888 5808 3888
WIRE 6016 3888 5936 3888
WIRE 6304 3888 6304 3872
WIRE 6432 3888 6304 3888
WIRE 6512 3888 6432 3888
WIRE 6768 3888 6720 3888
WIRE 7808 3888 7600 3888
WIRE 9024 3888 8816 3888
WIRE 10240 3888 10032 3888
WIRE 11456 3888 11248 3888
WIRE 12672 3888 12464 3888
WIRE 13888 3888 13680 3888
WIRE 784 3904 784 3712
WIRE -1168 3920 -1168 3904
WIRE 5040 3920 5040 3776
WIRE 8048 3920 8048 3776
WIRE 9264 3920 9264 3776
WIRE 10480 3920 10480 3776
WIRE 11696 3920 11696 3776
WIRE 12912 3920 12912 3776
WIRE 14128 3920 14128 3776
WIRE 4976 3968 4928 3968
WIRE 7984 3968 7936 3968
WIRE 9200 3968 9152 3968
WIRE 10416 3968 10368 3968
WIRE 11632 3968 11584 3968
WIRE 12848 3968 12800 3968
WIRE 14064 3968 14016 3968
WIRE 5344 3984 5344 3952
WIRE 5440 3984 5344 3984
WIRE 6080 3984 6080 3936
WIRE 6576 3984 6576 3936
WIRE 6576 3984 6080 3984
WIRE 6640 3984 6576 3984
WIRE 6832 3984 6832 3936
WIRE 6832 3984 6640 3984
WIRE 7136 3984 7136 3952
WIRE 7232 3984 7136 3984
WIRE 8352 3984 8352 3952
WIRE 8448 3984 8352 3984
WIRE 9568 3984 9568 3952
WIRE 9664 3984 9568 3984
WIRE 10784 3984 10784 3952
WIRE 10880 3984 10784 3984
WIRE 12000 3984 12000 3952
WIRE 12096 3984 12000 3984
WIRE 13216 3984 13216 3952
WIRE 13312 3984 13216 3984
WIRE 14432 3984 14432 3952
WIRE 14528 3984 14432 3984
WIRE 784 4000 784 3968
WIRE 784 4000 608 4000
WIRE 832 4000 784 4000
WIRE 944 4000 944 3840
WIRE 944 4000 896 4000
WIRE 816 4016 816 3728
WIRE 816 4016 608 4016
WIRE 832 4016 816 4016
WIRE 4720 4048 4720 3888
WIRE 5936 4048 5936 3888
WIRE 6432 4048 6432 3888
WIRE 4864 4064 4864 3936
WIRE 5040 4064 5040 4016
WIRE 5040 4064 4864 4064
WIRE 7872 4064 7872 3936
WIRE 8048 4064 8048 4016
WIRE 8048 4064 7872 4064
WIRE 9088 4064 9088 3936
WIRE 9264 4064 9264 4016
WIRE 9264 4064 9088 4064
WIRE 10304 4064 10304 3936
WIRE 10480 4064 10480 4016
WIRE 10480 4064 10304 4064
WIRE 11520 4064 11520 3936
WIRE 11696 4064 11696 4016
WIRE 11696 4064 11520 4064
WIRE 12736 4064 12736 3936
WIRE 12912 4064 12912 4016
WIRE 12912 4064 12736 4064
WIRE 13952 4064 13952 3936
WIRE 14128 4064 14128 4016
WIRE 14128 4064 13952 4064
WIRE 4656 4096 4224 4096
WIRE 5040 4096 5040 4064
WIRE 5344 4096 5344 3984
WIRE 5376 4096 5344 4096
WIRE 5472 4096 5376 4096
WIRE 5872 4096 5648 4096
WIRE 6368 4096 6112 4096
WIRE 6832 4096 6832 3984
WIRE 7136 4096 7136 3984
WIRE 7168 4096 7136 4096
WIRE 7264 4096 7168 4096
WIRE 7504 4096 7440 4096
WIRE 7600 4096 7600 3888
WIRE 7600 4096 7584 4096
WIRE 8048 4096 8048 4064
WIRE 8352 4096 8352 3984
WIRE 8384 4096 8352 4096
WIRE 8480 4096 8384 4096
WIRE 8720 4096 8656 4096
WIRE 8816 4096 8816 3888
WIRE 8816 4096 8800 4096
WIRE 9264 4096 9264 4064
WIRE 9568 4096 9568 3984
WIRE 9600 4096 9568 4096
WIRE 9696 4096 9600 4096
WIRE 9936 4096 9872 4096
WIRE 10032 4096 10032 3888
WIRE 10032 4096 10016 4096
WIRE 10480 4096 10480 4064
WIRE 10784 4096 10784 3984
WIRE 10816 4096 10784 4096
WIRE 10912 4096 10816 4096
WIRE 11152 4096 11088 4096
WIRE 11248 4096 11248 3888
WIRE 11248 4096 11232 4096
WIRE 11696 4096 11696 4064
WIRE 12000 4096 12000 3984
WIRE 12032 4096 12000 4096
WIRE 12128 4096 12032 4096
WIRE 12368 4096 12304 4096
WIRE 12464 4096 12464 3888
WIRE 12464 4096 12448 4096
WIRE 12912 4096 12912 4064
WIRE 13216 4096 13216 3984
WIRE 13248 4096 13216 4096
WIRE 13344 4096 13248 4096
WIRE 13584 4096 13520 4096
WIRE 13680 4096 13680 3888
WIRE 13680 4096 13664 4096
WIRE 14128 4096 14128 4064
WIRE 14432 4096 14432 3984
WIRE 14464 4096 14432 4096
WIRE 5248 4128 5184 4128
WIRE 5344 4128 5344 4096
WIRE 5344 4128 5312 4128
WIRE 7040 4128 6976 4128
WIRE 7136 4128 7136 4096
WIRE 7136 4128 7104 4128
WIRE 8256 4128 8192 4128
WIRE 8352 4128 8352 4096
WIRE 8352 4128 8320 4128
WIRE 9472 4128 9408 4128
WIRE 9568 4128 9568 4096
WIRE 9568 4128 9536 4128
WIRE 10688 4128 10624 4128
WIRE 10784 4128 10784 4096
WIRE 10784 4128 10752 4128
WIRE 11904 4128 11840 4128
WIRE 12000 4128 12000 4096
WIRE 12000 4128 11968 4128
WIRE 13120 4128 13056 4128
WIRE 13216 4128 13216 4096
WIRE 13216 4128 13184 4128
WIRE 14336 4128 14272 4128
WIRE 14432 4128 14432 4096
WIRE 14432 4128 14400 4128
WIRE 560 4160 304 4160
WIRE 2272 4160 2016 4160
WIRE 5344 4176 5344 4128
WIRE 7136 4176 7136 4128
WIRE 8352 4176 8352 4128
WIRE 9568 4176 9568 4128
WIRE 10784 4176 10784 4128
WIRE 12000 4176 12000 4128
WIRE 13216 4176 13216 4128
WIRE 14432 4176 14432 4128
WIRE -1472 4208 -1536 4208
WIRE -992 4208 -1392 4208
WIRE -704 4208 -992 4208
WIRE -496 4208 -704 4208
WIRE -208 4208 -496 4208
WIRE 4592 4208 4592 3888
WIRE 5808 4208 5808 3888
WIRE 6304 4208 6304 3888
WIRE 7600 4208 7600 4096
WIRE 8816 4208 8816 4096
WIRE 10032 4208 10032 4096
WIRE 11248 4208 11248 4096
WIRE 12464 4208 12464 4096
WIRE 13680 4208 13680 4096
WIRE 5040 4224 5040 4176
WIRE 5184 4224 5184 4128
WIRE 5184 4224 5040 4224
WIRE 5280 4224 5184 4224
WIRE 6832 4224 6832 4176
WIRE 6976 4224 6976 4128
WIRE 6976 4224 6832 4224
WIRE 7072 4224 6976 4224
WIRE 8048 4224 8048 4176
WIRE 8192 4224 8192 4128
WIRE 8192 4224 8048 4224
WIRE 8288 4224 8192 4224
WIRE 9264 4224 9264 4176
WIRE 9408 4224 9408 4128
WIRE 9408 4224 9264 4224
WIRE 9504 4224 9408 4224
WIRE 10480 4224 10480 4176
WIRE 10624 4224 10624 4128
WIRE 10624 4224 10480 4224
WIRE 10720 4224 10624 4224
WIRE 11696 4224 11696 4176
WIRE 11840 4224 11840 4128
WIRE 11840 4224 11696 4224
WIRE 11936 4224 11840 4224
WIRE 12912 4224 12912 4176
WIRE 13056 4224 13056 4128
WIRE 13056 4224 12912 4224
WIRE 13152 4224 13056 4224
WIRE 14128 4224 14128 4176
WIRE 14272 4224 14272 4128
WIRE 14272 4224 14128 4224
WIRE 14368 4224 14272 4224
WIRE 400 4240 304 4240
WIRE 672 4240 480 4240
WIRE 944 4240 672 4240
WIRE 1120 4240 944 4240
WIRE 1424 4240 1120 4240
WIRE 2112 4240 2016 4240
WIRE 2384 4240 2192 4240
WIRE 2512 4240 2384 4240
WIRE 2832 4240 2512 4240
WIRE 3136 4240 2832 4240
WIRE 672 4256 672 4240
WIRE 4480 4256 4480 3696
WIRE 4528 4256 4480 4256
WIRE 5696 4256 5696 3648
WIRE 5744 4256 5696 4256
WIRE 6192 4256 6192 3696
WIRE 6240 4256 6192 4256
WIRE 7488 4256 7488 3696
WIRE 7536 4256 7488 4256
WIRE 8704 4256 8704 3648
WIRE 8752 4256 8704 4256
WIRE 9920 4256 9920 3696
WIRE 9968 4256 9920 4256
WIRE 11136 4256 11136 3696
WIRE 11184 4256 11136 4256
WIRE 12352 4256 12352 3648
WIRE 12400 4256 12352 4256
WIRE 13568 4256 13568 3696
WIRE 13616 4256 13568 4256
WIRE 5040 4272 5040 4224
WIRE 6832 4272 6832 4224
WIRE 8048 4272 8048 4224
WIRE 9264 4272 9264 4224
WIRE 10480 4272 10480 4224
WIRE 11696 4272 11696 4224
WIRE 12912 4272 12912 4224
WIRE 14128 4272 14128 4224
WIRE 2832 4288 2832 4240
WIRE 944 4304 944 4240
WIRE 1424 4336 1424 4240
WIRE 2384 4336 2384 4240
WIRE 672 4352 672 4336
WIRE 800 4352 672 4352
WIRE 880 4352 800 4352
WIRE 3136 4368 3136 4240
WIRE -704 4384 -704 4208
WIRE -208 4384 -208 4208
WIRE 1120 4384 1120 4240
WIRE 2272 4384 2272 4160
WIRE 2320 4384 2272 4384
WIRE 4592 4400 4592 4304
WIRE 4592 4400 4224 4400
WIRE 4720 4400 4720 4144
WIRE 4720 4400 4592 4400
WIRE 5040 4400 5040 4352
WIRE 5040 4400 4720 4400
WIRE 5344 4400 5344 4272
WIRE 5344 4400 5040 4400
WIRE 5808 4400 5808 4304
WIRE 5808 4400 5344 4400
WIRE 5936 4400 5936 4144
WIRE 5936 4400 5808 4400
WIRE 6304 4400 6304 4304
WIRE 6304 4400 5936 4400
WIRE 6432 4400 6432 4144
WIRE 6432 4400 6304 4400
WIRE 6832 4400 6832 4352
WIRE 6832 4400 6432 4400
WIRE 7136 4400 7136 4272
WIRE 7136 4400 6832 4400
WIRE 7600 4400 7600 4304
WIRE 7600 4400 7136 4400
WIRE 8048 4400 8048 4352
WIRE 8048 4400 7600 4400
WIRE 8352 4400 8352 4272
WIRE 8352 4400 8048 4400
WIRE 8816 4400 8816 4304
WIRE 8816 4400 8352 4400
WIRE 9264 4400 9264 4352
WIRE 9264 4400 8816 4400
WIRE 9568 4400 9568 4272
WIRE 9568 4400 9264 4400
WIRE 10032 4400 10032 4304
WIRE 10032 4400 9568 4400
WIRE 10480 4400 10480 4352
WIRE 10480 4400 10032 4400
WIRE 10784 4400 10784 4272
WIRE 10784 4400 10480 4400
WIRE 11248 4400 11248 4304
WIRE 11248 4400 10784 4400
WIRE 11696 4400 11696 4352
WIRE 11696 4400 11248 4400
WIRE 12000 4400 12000 4272
WIRE 12000 4400 11696 4400
WIRE 12464 4400 12464 4304
WIRE 12464 4400 12000 4400
WIRE 12912 4400 12912 4352
WIRE 12912 4400 12464 4400
WIRE 13216 4400 13216 4272
WIRE 13216 4400 12912 4400
WIRE 13680 4400 13680 4304
WIRE 13680 4400 13216 4400
WIRE 14128 4400 14128 4352
WIRE 14128 4400 13680 4400
WIRE 14432 4400 14432 4272
WIRE 14432 4400 14128 4400
WIRE 2832 4416 2832 4368
WIRE 2976 4416 2832 4416
WIRE 3072 4416 2976 4416
WIRE 1056 4432 1008 4432
WIRE -992 4448 -992 4208
WIRE -496 4448 -496 4208
WIRE 1424 4448 1424 4416
WIRE 1520 4448 1424 4448
WIRE 4224 4448 4224 4400
WIRE 4928 4448 4928 3968
WIRE 5440 4448 5440 3984
WIRE 6720 4448 6720 3888
WIRE 7232 4448 7232 3984
WIRE 7936 4448 7936 3968
WIRE 8448 4448 8448 3984
WIRE 9152 4448 9152 3968
WIRE 9664 4448 9664 3984
WIRE 10368 4448 10368 3968
WIRE 10880 4448 10880 3984
WIRE 11584 4448 11584 3968
WIRE 12096 4448 12096 3984
WIRE 12800 4448 12800 3968
WIRE 13312 4448 13312 3984
WIRE 14016 4448 14016 3968
WIRE 14528 4448 14528 3984
WIRE 2832 4464 2832 4416
WIRE -1488 4496 -1536 4496
WIRE -1056 4496 -1488 4496
WIRE -704 4496 -704 4464
WIRE -656 4496 -704 4496
WIRE -560 4496 -656 4496
WIRE -208 4496 -208 4464
WIRE -144 4496 -208 4496
WIRE -96 4496 -144 4496
WIRE 800 4512 800 4352
WIRE 2512 4512 2512 4240
WIRE 2976 4512 2976 4416
WIRE 3040 4512 2976 4512
WIRE 3136 4512 3136 4464
WIRE 3136 4512 3104 4512
WIRE 944 4528 944 4400
WIRE 1120 4528 1120 4480
WIRE 1120 4528 944 4528
WIRE 736 4560 304 4560
WIRE 1120 4560 1120 4528
WIRE 1424 4560 1424 4448
WIRE 1696 4560 1424 4560
WIRE 2448 4560 2016 4560
WIRE 3136 4560 3136 4512
WIRE 3232 4560 3136 4560
WIRE 3408 4560 3232 4560
WIRE -992 4576 -992 4544
WIRE -496 4576 -496 4544
WIRE 2832 4576 2832 4544
WIRE 2832 4576 2656 4576
WIRE 1328 4592 1264 4592
WIRE 1424 4592 1424 4560
WIRE 1424 4592 1392 4592
WIRE 4928 4608 5440 4448
WIRE 5440 4608 4928 4448
WIRE 6720 4608 7232 4448
WIRE 7232 4608 6720 4448
WIRE 7936 4608 8448 4448
WIRE 8448 4608 7936 4448
WIRE 9152 4608 9664 4448
WIRE 9664 4608 9152 4448
WIRE 10368 4608 10880 4448
WIRE 10880 4608 10368 4448
WIRE 11584 4608 12096 4448
WIRE 12096 4608 11584 4448
WIRE 12800 4608 13312 4448
WIRE 13312 4608 12800 4448
WIRE 14016 4608 14528 4448
WIRE 14528 4608 14016 4448
WIRE -800 4624 -864 4624
WIRE -704 4624 -704 4496
WIRE -704 4624 -736 4624
WIRE -304 4624 -368 4624
WIRE -208 4624 -208 4496
WIRE -208 4624 -240 4624
WIRE 2832 4624 2832 4576
WIRE 1424 4640 1424 4592
WIRE 4320 4656 4224 4656
WIRE 4592 4656 4400 4656
WIRE 4864 4656 4592 4656
WIRE 5040 4656 4864 4656
WIRE 5344 4656 5040 4656
WIRE 5808 4656 5344 4656
WIRE 6080 4656 5808 4656
WIRE 6304 4656 6080 4656
WIRE 6576 4656 6304 4656
WIRE 6832 4656 6576 4656
WIRE 7136 4656 6832 4656
WIRE 7872 4656 7136 4656
WIRE 8048 4656 7872 4656
WIRE 8352 4656 8048 4656
WIRE 9088 4656 8352 4656
WIRE 9264 4656 9088 4656
WIRE 9568 4656 9264 4656
WIRE 10304 4656 9568 4656
WIRE 10480 4656 10304 4656
WIRE 10784 4656 10480 4656
WIRE 11520 4656 10784 4656
WIRE 11696 4656 11520 4656
WIRE 12000 4656 11696 4656
WIRE 12736 4656 12000 4656
WIRE 12912 4656 12736 4656
WIRE 13216 4656 12912 4656
WIRE 13952 4656 13216 4656
WIRE 14128 4656 13952 4656
WIRE 14432 4656 14128 4656
WIRE -704 4672 -704 4624
WIRE -208 4672 -208 4624
WIRE 672 4672 672 4352
WIRE 2768 4672 2720 4672
WIRE 4592 4672 4592 4656
WIRE 5808 4672 5808 4656
WIRE 6304 4672 6304 4656
WIRE 1120 4688 1120 4640
WIRE 1264 4688 1264 4592
WIRE 1264 4688 1120 4688
WIRE 1360 4688 1264 4688
WIRE 3136 4688 3136 4560
WIRE 2656 4704 2656 4576
WIRE -992 4720 -992 4656
WIRE -864 4720 -864 4624
WIRE -864 4720 -992 4720
WIRE -768 4720 -864 4720
WIRE -496 4720 -496 4656
WIRE -368 4720 -368 4624
WIRE -368 4720 -496 4720
WIRE -272 4720 -368 4720
WIRE 560 4720 560 4160
WIRE 608 4720 560 4720
WIRE 4864 4720 4864 4656
WIRE 6080 4720 6080 4656
WIRE 6576 4720 6576 4656
WIRE 6832 4720 6832 4656
WIRE 7872 4720 7872 4656
WIRE 9088 4720 9088 4656
WIRE 10304 4720 10304 4656
WIRE 11520 4720 11520 4656
WIRE 12736 4720 12736 4656
WIRE 13952 4720 13952 4656
WIRE 1120 4736 1120 4688
WIRE 2384 4752 2384 4432
WIRE 2512 4752 2512 4608
WIRE 2512 4752 2384 4752
WIRE 2592 4752 2512 4752
WIRE 5344 4752 5344 4656
WIRE 7136 4752 7136 4656
WIRE 8352 4752 8352 4656
WIRE 9568 4752 9568 4656
WIRE 10784 4752 10784 4656
WIRE 12000 4752 12000 4656
WIRE 13216 4752 13216 4656
WIRE 14432 4752 14432 4656
WIRE -992 4768 -992 4720
WIRE -496 4768 -496 4720
WIRE 2384 4768 2384 4752
WIRE 4592 4768 4592 4752
WIRE 4720 4768 4592 4768
WIRE 4800 4768 4720 4768
WIRE 5808 4768 5808 4752
WIRE 5936 4768 5808 4768
WIRE 6016 4768 5936 4768
WIRE 6304 4768 6304 4752
WIRE 6432 4768 6304 4768
WIRE 6512 4768 6432 4768
WIRE 6720 4768 6720 4608
WIRE 6768 4768 6720 4768
WIRE 7808 4768 7600 4768
WIRE 9024 4768 8816 4768
WIRE 10240 4768 10032 4768
WIRE 11456 4768 11248 4768
WIRE 12672 4768 12464 4768
WIRE 13888 4768 13680 4768
WIRE 5040 4800 5040 4656
WIRE 8048 4800 8048 4656
WIRE 9264 4800 9264 4656
WIRE 10480 4800 10480 4656
WIRE 11696 4800 11696 4656
WIRE 12912 4800 12912 4656
WIRE 14128 4800 14128 4656
WIRE 4928 4848 4928 4608
WIRE 4976 4848 4928 4848
WIRE 5344 4848 5344 4832
WIRE 5440 4848 5440 4608
WIRE 5440 4848 5344 4848
WIRE 7136 4848 7136 4832
WIRE 7232 4848 7232 4608
WIRE 7232 4848 7136 4848
WIRE 7936 4848 7936 4608
WIRE 7984 4848 7936 4848
WIRE 8352 4848 8352 4832
WIRE 8448 4848 8448 4608
WIRE 8448 4848 8352 4848
WIRE 9152 4848 9152 4608
WIRE 9200 4848 9152 4848
WIRE 9568 4848 9568 4832
WIRE 9664 4848 9664 4608
WIRE 9664 4848 9568 4848
WIRE 10368 4848 10368 4608
WIRE 10416 4848 10368 4848
WIRE 10784 4848 10784 4832
WIRE 10880 4848 10880 4608
WIRE 10880 4848 10784 4848
WIRE 11584 4848 11584 4608
WIRE 11632 4848 11584 4848
WIRE 12000 4848 12000 4832
WIRE 12096 4848 12096 4608
WIRE 12096 4848 12000 4848
WIRE 12800 4848 12800 4608
WIRE 12848 4848 12800 4848
WIRE 13216 4848 13216 4832
WIRE 13312 4848 13312 4608
WIRE 13312 4848 13216 4848
WIRE 14016 4848 14016 4608
WIRE 14064 4848 14016 4848
WIRE 14432 4848 14432 4832
WIRE 14528 4848 14528 4608
WIRE 14528 4848 14432 4848
WIRE 672 4864 672 4768
WIRE 672 4864 304 4864
WIRE 800 4864 800 4608
WIRE 800 4864 672 4864
WIRE 1120 4864 1120 4816
WIRE 1120 4864 800 4864
WIRE 1424 4864 1424 4736
WIRE 1424 4864 1120 4864
WIRE 2384 4864 2384 4848
WIRE 2384 4864 2016 4864
WIRE 2656 4864 2656 4800
WIRE 2656 4864 2384 4864
WIRE 2832 4864 2832 4720
WIRE 2832 4864 2656 4864
WIRE 3136 4864 3136 4768
WIRE 3136 4864 2832 4864
WIRE 6080 4864 6080 4816
WIRE 6576 4864 6576 4816
WIRE 6576 4864 6080 4864
WIRE 6640 4864 6576 4864
WIRE 6832 4864 6832 4816
WIRE 6832 4864 6640 4864
WIRE -992 4896 -992 4848
WIRE -992 4896 -1600 4896
WIRE -848 4896 -992 4896
WIRE -704 4896 -704 4768
WIRE -704 4896 -848 4896
WIRE -496 4896 -496 4848
WIRE -496 4896 -704 4896
WIRE -352 4896 -496 4896
WIRE -208 4896 -208 4768
WIRE -208 4896 -352 4896
WIRE 304 4912 304 4864
WIRE 1008 4912 1008 4432
WIRE 1520 4912 1520 4448
WIRE 2016 4912 2016 4864
WIRE 2720 4912 2720 4672
WIRE 3232 4912 3232 4560
WIRE -848 4928 -848 4896
WIRE -352 4928 -352 4896
WIRE 4720 4928 4720 4768
WIRE 5936 4928 5936 4768
WIRE 6432 4928 6432 4768
WIRE 4864 4944 4864 4816
WIRE 5040 4944 5040 4896
WIRE 5040 4944 4864 4944
WIRE 7872 4944 7872 4816
WIRE 8048 4944 8048 4896
WIRE 8048 4944 7872 4944
WIRE 9088 4944 9088 4816
WIRE 9264 4944 9264 4896
WIRE 9264 4944 9088 4944
WIRE 10304 4944 10304 4816
WIRE 10480 4944 10480 4896
WIRE 10480 4944 10304 4944
WIRE 11520 4944 11520 4816
WIRE 11696 4944 11696 4896
WIRE 11696 4944 11520 4944
WIRE 12736 4944 12736 4816
WIRE 12912 4944 12912 4896
WIRE 12912 4944 12736 4944
WIRE 13952 4944 13952 4816
WIRE 14128 4944 14128 4896
WIRE 14128 4944 13952 4944
WIRE 4656 4976 4224 4976
WIRE 5040 4976 5040 4944
WIRE 5344 4976 5344 4848
WIRE 5376 4976 5344 4976
WIRE 5472 4976 5648 4096
WIRE 5472 4976 5376 4976
WIRE 5648 4976 5472 4096
WIRE 5872 4976 5648 4976
WIRE 6368 4976 6144 4976
WIRE 6832 4976 6832 4864
WIRE 7136 4976 7136 4848
WIRE 7168 4976 7136 4976
WIRE 7264 4976 7440 4096
WIRE 7264 4976 7168 4976
WIRE 7440 4976 7264 4096
WIRE 7504 4976 7440 4976
WIRE 7600 4976 7600 4768
WIRE 7600 4976 7584 4976
WIRE 8048 4976 8048 4944
WIRE 8352 4976 8352 4848
WIRE 8384 4976 8352 4976
WIRE 8480 4976 8656 4096
WIRE 8480 4976 8384 4976
WIRE 8656 4976 8480 4096
WIRE 8720 4976 8656 4976
WIRE 8816 4976 8816 4768
WIRE 8816 4976 8800 4976
WIRE 9264 4976 9264 4944
WIRE 9568 4976 9568 4848
WIRE 9600 4976 9568 4976
WIRE 9696 4976 9872 4096
WIRE 9696 4976 9600 4976
WIRE 9872 4976 9696 4096
WIRE 9936 4976 9872 4976
WIRE 10032 4976 10032 4768
WIRE 10032 4976 10016 4976
WIRE 10480 4976 10480 4944
WIRE 10784 4976 10784 4848
WIRE 10816 4976 10784 4976
WIRE 10912 4976 11088 4096
WIRE 10912 4976 10816 4976
WIRE 11088 4976 10912 4096
WIRE 11152 4976 11088 4976
WIRE 11248 4976 11248 4768
WIRE 11248 4976 11232 4976
WIRE 11696 4976 11696 4944
WIRE 12000 4976 12000 4848
WIRE 12032 4976 12000 4976
WIRE 12128 4976 12304 4096
WIRE 12128 4976 12032 4976
WIRE 12304 4976 12128 4096
WIRE 12368 4976 12304 4976
WIRE 12464 4976 12464 4768
WIRE 12464 4976 12448 4976
WIRE 12912 4976 12912 4944
WIRE 13216 4976 13216 4848
WIRE 13248 4976 13216 4976
WIRE 13344 4976 13520 4096
WIRE 13344 4976 13248 4976
WIRE 13520 4976 13344 4096
WIRE 13584 4976 13520 4976
WIRE 13680 4976 13680 4768
WIRE 13680 4976 13664 4976
WIRE 14128 4976 14128 4944
WIRE 14432 4976 14432 4848
WIRE 14464 4976 14432 4976
WIRE 5248 5008 5184 5008
WIRE 5344 5008 5344 4976
WIRE 5344 5008 5312 5008
WIRE 7040 5008 6976 5008
WIRE 7136 5008 7136 4976
WIRE 7136 5008 7104 5008
WIRE 8256 5008 8192 5008
WIRE 8352 5008 8352 4976
WIRE 8352 5008 8320 5008
WIRE 9472 5008 9408 5008
WIRE 9568 5008 9568 4976
WIRE 9568 5008 9536 5008
WIRE 10688 5008 10624 5008
WIRE 10784 5008 10784 4976
WIRE 10784 5008 10752 5008
WIRE 11904 5008 11840 5008
WIRE 12000 5008 12000 4976
WIRE 12000 5008 11968 5008
WIRE 13120 5008 13056 5008
WIRE 13216 5008 13216 4976
WIRE 13216 5008 13184 5008
WIRE 14336 5008 14272 5008
WIRE 14432 5008 14432 4976
WIRE 14432 5008 14400 5008
WIRE 5344 5056 5344 5008
WIRE 7136 5056 7136 5008
WIRE 8352 5056 8352 5008
WIRE 9568 5056 9568 5008
WIRE 10784 5056 10784 5008
WIRE 12000 5056 12000 5008
WIRE 13216 5056 13216 5008
WIRE 14432 5056 14432 5008
WIRE 1008 5072 1520 4912
WIRE 1520 5072 1008 4912
WIRE 2720 5072 3232 4912
WIRE 3232 5072 2720 4912
WIRE 4592 5088 4592 4768
WIRE 5808 5088 5808 4768
WIRE 6304 5088 6304 4768
WIRE 7600 5088 7600 4976
WIRE 8816 5088 8816 4976
WIRE 10032 5088 10032 4976
WIRE 11248 5088 11248 4976
WIRE 12464 5088 12464 4976
WIRE 13680 5088 13680 4976
WIRE -1472 5104 -1536 5104
WIRE -992 5104 -1392 5104
WIRE -704 5104 -992 5104
WIRE -496 5104 -704 5104
WIRE -208 5104 -496 5104
WIRE 5040 5104 5040 5056
WIRE 5184 5104 5184 5008
WIRE 5184 5104 5040 5104
WIRE 5280 5104 5184 5104
WIRE 6832 5104 6832 5056
WIRE 6976 5104 6976 5008
WIRE 6976 5104 6832 5104
WIRE 7072 5104 6976 5104
WIRE 8048 5104 8048 5056
WIRE 8192 5104 8192 5008
WIRE 8192 5104 8048 5104
WIRE 8288 5104 8192 5104
WIRE 9264 5104 9264 5056
WIRE 9408 5104 9408 5008
WIRE 9408 5104 9264 5104
WIRE 9504 5104 9408 5104
WIRE 10480 5104 10480 5056
WIRE 10624 5104 10624 5008
WIRE 10624 5104 10480 5104
WIRE 10720 5104 10624 5104
WIRE 11696 5104 11696 5056
WIRE 11840 5104 11840 5008
WIRE 11840 5104 11696 5104
WIRE 11936 5104 11840 5104
WIRE 12912 5104 12912 5056
WIRE 13056 5104 13056 5008
WIRE 13056 5104 12912 5104
WIRE 13152 5104 13056 5104
WIRE 14128 5104 14128 5056
WIRE 14272 5104 14272 5008
WIRE 14272 5104 14128 5104
WIRE 14368 5104 14272 5104
WIRE 400 5120 304 5120
WIRE 672 5120 480 5120
WIRE 944 5120 672 5120
WIRE 1120 5120 944 5120
WIRE 1424 5120 1120 5120
WIRE 672 5136 672 5120
WIRE 2112 5136 2016 5136
WIRE 2384 5136 2192 5136
WIRE 2512 5136 2384 5136
WIRE 2832 5136 2512 5136
WIRE 3136 5136 2832 5136
WIRE 4480 5136 4480 4256
WIRE 4528 5136 4480 5136
WIRE 5696 5136 5696 4256
WIRE 5744 5136 5696 5136
WIRE 6192 5136 6192 4256
WIRE 6240 5136 6192 5136
WIRE 7488 5136 7488 4256
WIRE 7536 5136 7488 5136
WIRE 8704 5136 8704 4256
WIRE 8752 5136 8704 5136
WIRE 9920 5136 9920 4256
WIRE 9968 5136 9920 5136
WIRE 11136 5136 11136 4256
WIRE 11184 5136 11136 5136
WIRE 12352 5136 12352 4256
WIRE 12400 5136 12352 5136
WIRE 13568 5136 13568 4256
WIRE 13616 5136 13568 5136
WIRE 5040 5152 5040 5104
WIRE 6832 5152 6832 5104
WIRE 8048 5152 8048 5104
WIRE 9264 5152 9264 5104
WIRE 10480 5152 10480 5104
WIRE 11696 5152 11696 5104
WIRE 12912 5152 12912 5104
WIRE 14128 5152 14128 5104
WIRE 944 5184 944 5120
WIRE 2832 5184 2832 5136
WIRE 1424 5216 1424 5120
WIRE 672 5232 672 5216
WIRE 800 5232 672 5232
WIRE 880 5232 800 5232
WIRE 2384 5232 2384 5136
WIRE 1120 5264 1120 5120
WIRE 3136 5264 3136 5136
WIRE -704 5280 -704 5104
WIRE -208 5280 -208 5104
WIRE 2272 5280 2272 4384
WIRE 2320 5280 2272 5280
WIRE 4592 5280 4592 5184
WIRE 4592 5280 4224 5280
WIRE 4720 5280 4720 5024
WIRE 4720 5280 4592 5280
WIRE 5040 5280 5040 5232
WIRE 5040 5280 4720 5280
WIRE 5344 5280 5344 5152
WIRE 5344 5280 5040 5280
WIRE 5808 5280 5808 5184
WIRE 5808 5280 5344 5280
WIRE 5936 5280 5936 5024
WIRE 5936 5280 5808 5280
WIRE 6304 5280 6304 5184
WIRE 6304 5280 5936 5280
WIRE 6432 5280 6432 5024
WIRE 6432 5280 6304 5280
WIRE 6832 5280 6832 5232
WIRE 6832 5280 6432 5280
WIRE 7136 5280 7136 5152
WIRE 7136 5280 6832 5280
WIRE 7600 5280 7600 5184
WIRE 7600 5280 7136 5280
WIRE 8048 5280 8048 5232
WIRE 8048 5280 7600 5280
WIRE 8352 5280 8352 5152
WIRE 8352 5280 8048 5280
WIRE 8816 5280 8816 5184
WIRE 8816 5280 8352 5280
WIRE 9264 5280 9264 5232
WIRE 9264 5280 8816 5280
WIRE 9568 5280 9568 5152
WIRE 9568 5280 9264 5280
WIRE 10032 5280 10032 5184
WIRE 10032 5280 9568 5280
WIRE 10480 5280 10480 5232
WIRE 10480 5280 10032 5280
WIRE 10784 5280 10784 5152
WIRE 10784 5280 10480 5280
WIRE 11248 5280 11248 5184
WIRE 11248 5280 10784 5280
WIRE 11696 5280 11696 5232
WIRE 11696 5280 11248 5280
WIRE 12000 5280 12000 5152
WIRE 12000 5280 11696 5280
WIRE 12464 5280 12464 5184
WIRE 12464 5280 12000 5280
WIRE 12912 5280 12912 5232
WIRE 12912 5280 12464 5280
WIRE 13216 5280 13216 5152
WIRE 13216 5280 12912 5280
WIRE 13680 5280 13680 5184
WIRE 13680 5280 13216 5280
WIRE 14128 5280 14128 5232
WIRE 14128 5280 13680 5280
WIRE 14432 5280 14432 5152
WIRE 14432 5280 14128 5280
WIRE 1008 5312 1008 5072
WIRE 1056 5312 1008 5312
WIRE 1424 5312 1424 5296
WIRE 1520 5312 1520 5072
WIRE 1520 5312 1424 5312
WIRE 2832 5312 2832 5264
WIRE 2976 5312 2832 5312
WIRE 3072 5312 2976 5312
WIRE 4224 5328 4224 5280
WIRE -992 5344 -992 5104
WIRE -496 5344 -496 5104
WIRE 2832 5360 2832 5312
WIRE -1488 5392 -1536 5392
WIRE -1056 5392 -1488 5392
WIRE -704 5392 -704 5360
WIRE -656 5392 -704 5392
WIRE -560 5392 -656 5392
WIRE -208 5392 -208 5360
WIRE -144 5392 -208 5392
WIRE -96 5392 -144 5392
WIRE 800 5392 800 5232
WIRE 2512 5392 2512 5136
WIRE 944 5408 944 5280
WIRE 1120 5408 1120 5360
WIRE 1120 5408 944 5408
WIRE 2976 5408 2976 5312
WIRE 3040 5408 2976 5408
WIRE 3136 5408 3136 5360
WIRE 3136 5408 3104 5408
WIRE 736 5440 304 5440
WIRE 1120 5440 1120 5408
WIRE 1424 5440 1424 5312
WIRE 1696 5440 1424 5440
WIRE 2448 5440 2016 5440
WIRE 3136 5440 3136 5408
WIRE 3232 5440 3232 5072
WIRE 3232 5440 3136 5440
WIRE 3408 5440 3232 5440
WIRE -992 5472 -992 5440
WIRE -496 5472 -496 5440
WIRE 1328 5472 1264 5472
WIRE 1424 5472 1424 5440
WIRE 1424 5472 1392 5472
WIRE 2832 5472 2832 5440
WIRE 2832 5472 2656 5472
WIRE 4320 5488 4224 5488
WIRE 4592 5488 4400 5488
WIRE 4864 5488 4592 5488
WIRE 5040 5488 4864 5488
WIRE 5344 5488 5040 5488
WIRE 4592 5504 4592 5488
WIRE -800 5520 -864 5520
WIRE -704 5520 -704 5392
WIRE -704 5520 -736 5520
WIRE -304 5520 -368 5520
WIRE -208 5520 -208 5392
WIRE -208 5520 -240 5520
WIRE 1424 5520 1424 5472
WIRE 2832 5520 2832 5472
WIRE 672 5552 672 5232
WIRE 4864 5552 4864 5488
WIRE -704 5568 -704 5520
WIRE -208 5568 -208 5520
WIRE 1120 5568 1120 5520
WIRE 1264 5568 1264 5472
WIRE 1264 5568 1120 5568
WIRE 1360 5568 1264 5568
WIRE 2720 5568 2720 5072
WIRE 2768 5568 2720 5568
WIRE 3136 5584 3136 5440
WIRE 5344 5584 5344 5488
WIRE 560 5600 560 4720
WIRE 608 5600 560 5600
WIRE 2656 5600 2656 5472
WIRE 4592 5600 4592 5584
WIRE 4720 5600 4592 5600
WIRE 4800 5600 4720 5600
WIRE -992 5616 -992 5552
WIRE -864 5616 -864 5520
WIRE -864 5616 -992 5616
WIRE -768 5616 -864 5616
WIRE -496 5616 -496 5552
WIRE -368 5616 -368 5520
WIRE -368 5616 -496 5616
WIRE -272 5616 -368 5616
WIRE 1120 5616 1120 5568
WIRE 5040 5632 5040 5488
WIRE 2384 5648 2384 5328
WIRE 2512 5648 2512 5488
WIRE 2512 5648 2384 5648
WIRE 2592 5648 2512 5648
WIRE -992 5664 -992 5616
WIRE -496 5664 -496 5616
WIRE 2384 5664 2384 5648
WIRE 4976 5680 4928 5680
WIRE 5344 5696 5344 5664
WIRE 5440 5696 5344 5696
WIRE 672 5744 672 5648
WIRE 672 5744 304 5744
WIRE 800 5744 800 5488
WIRE 800 5744 672 5744
WIRE 1120 5744 1120 5696
WIRE 1120 5744 800 5744
WIRE 1424 5744 1424 5616
WIRE 1424 5744 1120 5744
WIRE 2384 5760 2384 5744
WIRE 2384 5760 2016 5760
WIRE 2656 5760 2656 5696
WIRE 2656 5760 2384 5760
WIRE 2832 5760 2832 5616
WIRE 2832 5760 2656 5760
WIRE 3136 5760 3136 5664
WIRE 3136 5760 2832 5760
WIRE 4720 5760 4720 5600
WIRE 4864 5776 4864 5648
WIRE 5040 5776 5040 5728
WIRE 5040 5776 4864 5776
WIRE -992 5792 -992 5744
WIRE -992 5792 -1600 5792
WIRE -848 5792 -992 5792
WIRE -704 5792 -704 5664
WIRE -704 5792 -848 5792
WIRE -496 5792 -496 5744
WIRE -496 5792 -704 5792
WIRE -352 5792 -496 5792
WIRE -208 5792 -208 5664
WIRE -208 5792 -352 5792
WIRE 304 5792 304 5744
WIRE 2016 5808 2016 5760
WIRE 4656 5808 4224 5808
WIRE 5040 5808 5040 5776
WIRE 5344 5808 5344 5696
WIRE 5376 5808 5344 5808
WIRE 5472 5808 5376 5808
WIRE 6112 5808 6112 4096
WIRE 6112 5808 5648 5808
WIRE -848 5824 -848 5792
WIRE -352 5824 -352 5792
WIRE 5248 5840 5184 5840
WIRE 5344 5840 5344 5808
WIRE 5344 5840 5312 5840
WIRE 5344 5888 5344 5840
WIRE 4592 5920 4592 5600
WIRE 5040 5936 5040 5888
WIRE 5184 5936 5184 5840
WIRE 5184 5936 5040 5936
WIRE 5280 5936 5184 5936
WIRE 4448 5968 4448 3648
WIRE 4480 5968 4448 5968
WIRE 4528 5968 4480 5968
WIRE 5040 5984 5040 5936
WIRE 4592 6112 4592 6016
WIRE 4592 6112 4224 6112
WIRE 4720 6112 4720 5856
WIRE 4720 6112 4592 6112
WIRE 5040 6112 5040 6064
WIRE 5040 6112 4720 6112
WIRE 5344 6112 5344 5984
WIRE 5344 6112 5040 6112
WIRE 4224 6160 4224 6112
WIRE 4928 6160 4928 5680
WIRE 5440 6160 5440 5696
WIRE 4928 6320 5440 6160
WIRE 5440 6320 4928 6160
WIRE 4320 6368 4224 6368
WIRE 4592 6368 4400 6368
WIRE 4864 6368 4592 6368
WIRE 5040 6368 4864 6368
WIRE 5344 6368 5040 6368
WIRE 4592 6384 4592 6368
WIRE 4864 6432 4864 6368
WIRE 5344 6464 5344 6368
WIRE 4592 6480 4592 6464
WIRE 4720 6480 4592 6480
WIRE 4800 6480 4720 6480
WIRE 5040 6512 5040 6368
WIRE 4928 6560 4928 6320
WIRE 4976 6560 4928 6560
WIRE 5344 6560 5344 6544
WIRE 5440 6560 5440 6320
WIRE 5440 6560 5344 6560
WIRE 4720 6640 4720 6480
WIRE 4864 6656 4864 6528
WIRE 5040 6656 5040 6608
WIRE 5040 6656 4864 6656
WIRE 4656 6688 4224 6688
WIRE 5040 6688 5040 6656
WIRE 5344 6688 5344 6560
WIRE 5376 6688 5344 6688
WIRE 5472 6688 5648 5808
WIRE 5472 6688 5376 6688
WIRE 5648 6688 5472 5808
WIRE 6144 6688 6144 4976
WIRE 6144 6688 5648 6688
WIRE 5248 6720 5184 6720
WIRE 5344 6720 5344 6688
WIRE 5344 6720 5312 6720
WIRE 5344 6768 5344 6720
WIRE 4592 6800 4592 6480
WIRE 5040 6816 5040 6768
WIRE 5184 6816 5184 6720
WIRE 5184 6816 5040 6816
WIRE 5280 6816 5184 6816
WIRE 4480 6848 4480 5968
WIRE 4528 6848 4480 6848
WIRE 5040 6864 5040 6816
WIRE 4592 6992 4592 6896
WIRE 4592 6992 4224 6992
WIRE 4720 6992 4720 6736
WIRE 4720 6992 4592 6992
WIRE 5040 6992 5040 6944
WIRE 5040 6992 4720 6992
WIRE 5344 6992 5344 6864