Version 4
SHEET 1 37460 9492
WIRE 1024 3584 928 3584
WIRE 928 3600 928 3584
WIRE 928 3600 896 3600
WIRE 1024 3600 960 3600
WIRE 672 3616 608 3616
WIRE 832 3616 752 3616
WIRE 1024 3616 976 3616
WIRE 1152 3616 1088 3616
WIRE 1200 3616 1152 3616
WIRE 832 3632 800 3632
WIRE 976 3664 976 3616
WIRE 1152 3664 1152 3616
WIRE 832 3712 784 3712
WIRE 960 3712 960 3600
WIRE 960 3712 896 3712
WIRE 832 3728 816 3728
WIRE 976 3744 1152 3664
WIRE 1152 3744 976 3664
WIRE 976 3808 976 3744
WIRE 1024 3808 976 3808
WIRE -1168 3824 -1168 3792
WIRE 1024 3824 928 3824
WIRE -736 3840 -736 3808
WIRE -560 3840 -560 3808
WIRE 672 3840 752 3616
WIRE 672 3840 608 3840
WIRE 752 3840 672 3616
WIRE 768 3840 752 3840
WIRE 1024 3840 944 3840
WIRE 1152 3840 1152 3744
WIRE 1152 3840 1088 3840
WIRE 1200 3840 1152 3840
WIRE 768 3872 768 3840
WIRE 832 3872 768 3872
WIRE 928 3872 928 3824
WIRE 928 3872 896 3872
WIRE 800 3888 800 3632
WIRE 800 3888 608 3888
WIRE 832 3888 800 3888
WIRE 784 3904 784 3712
WIRE -1168 3920 -1168 3904
WIRE 784 4000 784 3968
WIRE 784 4000 608 4000
WIRE 832 4000 784 4000
WIRE 944 4000 944 3840
WIRE 944 4000 896 4000
WIRE 816 4016 816 3728
WIRE 816 4016 608 4016
WIRE 832 4016 816 4016
WIRE 5360 4112 3888 4112
WIRE 560 4160 304 4160
WIRE 2272 4160 2016 4160
WIRE 4144 4160 3888 4160
WIRE 6576 4160 4144 4160
WIRE -1472 4208 -1536 4208
WIRE -992 4208 -1392 4208
WIRE -704 4208 -992 4208
WIRE -496 4208 -704 4208
WIRE -208 4208 -496 4208
WIRE 400 4240 304 4240
WIRE 672 4240 480 4240
WIRE 944 4240 672 4240
WIRE 1120 4240 944 4240
WIRE 1424 4240 1120 4240
WIRE 2112 4240 2016 4240
WIRE 2384 4240 2192 4240
WIRE 2512 4240 2384 4240
WIRE 2832 4240 2512 4240
WIRE 3136 4240 2832 4240
WIRE 3984 4240 3888 4240
WIRE 4256 4240 4064 4240
WIRE 4528 4240 4256 4240
WIRE 4704 4240 4528 4240
WIRE 5008 4240 4704 4240
WIRE 5744 4240 5008 4240
WIRE 5920 4240 5744 4240
WIRE 6224 4240 5920 4240
WIRE 6960 4240 6224 4240
WIRE 7136 4240 6960 4240
WIRE 7440 4240 7136 4240
WIRE 672 4256 672 4240
WIRE 4256 4256 4256 4240
WIRE 2832 4288 2832 4240
WIRE 944 4304 944 4240
WIRE 4528 4304 4528 4240
WIRE 5744 4304 5744 4240
WIRE 6960 4304 6960 4240
WIRE 1424 4336 1424 4240
WIRE 2384 4336 2384 4240
WIRE 5008 4336 5008 4240
WIRE 6224 4336 6224 4240
WIRE 7440 4336 7440 4240
WIRE 672 4352 672 4336
WIRE 800 4352 672 4352
WIRE 880 4352 800 4352
WIRE 4256 4352 4256 4336
WIRE 4384 4352 4256 4352
WIRE 4464 4352 4384 4352
WIRE 5680 4352 5472 4352
WIRE 6896 4352 6688 4352
WIRE 3136 4368 3136 4240
WIRE -704 4384 -704 4208
WIRE -208 4384 -208 4208
WIRE 1120 4384 1120 4240
WIRE 2272 4384 2272 4160
WIRE 2320 4384 2272 4384
WIRE 4704 4384 4704 4240
WIRE 5920 4384 5920 4240
WIRE 7136 4384 7136 4240
WIRE 2832 4416 2832 4368
WIRE 2976 4416 2832 4416
WIRE 3072 4416 2976 4416
WIRE 1056 4432 1008 4432
WIRE 4640 4432 4592 4432
WIRE 5856 4432 5808 4432
WIRE 7072 4432 7024 4432
WIRE -992 4448 -992 4208
WIRE -496 4448 -496 4208
WIRE 1424 4448 1424 4416
WIRE 1520 4448 1424 4448
WIRE 5008 4448 5008 4416
WIRE 5104 4448 5008 4448
WIRE 6224 4448 6224 4416
WIRE 6320 4448 6224 4448
WIRE 7440 4448 7440 4416
WIRE 7536 4448 7440 4448
WIRE 2832 4464 2832 4416
WIRE -1488 4496 -1536 4496
WIRE -1056 4496 -1488 4496
WIRE -704 4496 -704 4464
WIRE -656 4496 -704 4496
WIRE -560 4496 -656 4496
WIRE -208 4496 -208 4464
WIRE -144 4496 -208 4496
WIRE -96 4496 -144 4496
WIRE 800 4512 800 4352
WIRE 2512 4512 2512 4240
WIRE 2976 4512 2976 4416
WIRE 3040 4512 2976 4512
WIRE 3136 4512 3136 4464
WIRE 3136 4512 3104 4512
WIRE 4384 4512 4384 4352
WIRE 944 4528 944 4400
WIRE 1120 4528 1120 4480
WIRE 1120 4528 944 4528
WIRE 4528 4528 4528 4400
WIRE 4704 4528 4704 4480
WIRE 4704 4528 4528 4528
WIRE 5744 4528 5744 4400
WIRE 5920 4528 5920 4480
WIRE 5920 4528 5744 4528
WIRE 6960 4528 6960 4400
WIRE 7136 4528 7136 4480
WIRE 7136 4528 6960 4528
WIRE 736 4560 304 4560
WIRE 1120 4560 1120 4528
WIRE 1424 4560 1424 4448
WIRE 1696 4560 1424 4560
WIRE 2448 4560 2016 4560
WIRE 3136 4560 3136 4512
WIRE 3232 4560 3136 4560
WIRE 3408 4560 3232 4560
WIRE 4320 4560 3888 4560
WIRE 4704 4560 4704 4528
WIRE 5008 4560 5008 4448
WIRE 5040 4560 5008 4560
WIRE 5136 4560 5040 4560
WIRE 5376 4560 5312 4560
WIRE 5472 4560 5472 4352
WIRE 5472 4560 5456 4560
WIRE 5920 4560 5920 4528
WIRE 6224 4560 6224 4448
WIRE 6256 4560 6224 4560
WIRE 6352 4560 6256 4560
WIRE 6592 4560 6528 4560
WIRE 6688 4560 6688 4352
WIRE 6688 4560 6672 4560
WIRE 7136 4560 7136 4528
WIRE 7440 4560 7440 4448
WIRE 7712 4560 7440 4560
WIRE -992 4576 -992 4544
WIRE -496 4576 -496 4544
WIRE 2832 4576 2832 4544
WIRE 2832 4576 2656 4576
WIRE 1328 4592 1264 4592
WIRE 1424 4592 1424 4560
WIRE 1424 4592 1392 4592
WIRE 4912 4592 4848 4592
WIRE 5008 4592 5008 4560
WIRE 5008 4592 4976 4592
WIRE 6128 4592 6064 4592
WIRE 6224 4592 6224 4560
WIRE 6224 4592 6192 4592
WIRE 7344 4592 7280 4592
WIRE 7440 4592 7440 4560
WIRE 7440 4592 7408 4592
WIRE -800 4624 -864 4624
WIRE -704 4624 -704 4496
WIRE -704 4624 -736 4624
WIRE -304 4624 -368 4624
WIRE -208 4624 -208 4496
WIRE -208 4624 -240 4624
WIRE 2832 4624 2832 4576
WIRE 1424 4640 1424 4592
WIRE 5008 4640 5008 4592
WIRE 6224 4640 6224 4592
WIRE 7440 4640 7440 4592
WIRE -704 4672 -704 4624
WIRE -208 4672 -208 4624
WIRE 672 4672 672 4352
WIRE 2768 4672 2720 4672
WIRE 4256 4672 4256 4352
WIRE 5472 4672 5472 4560
WIRE 6688 4672 6688 4560
WIRE 1120 4688 1120 4640
WIRE 1264 4688 1264 4592
WIRE 1264 4688 1120 4688
WIRE 1360 4688 1264 4688
WIRE 3136 4688 3136 4560
WIRE 4704 4688 4704 4640
WIRE 4848 4688 4848 4592
WIRE 4848 4688 4704 4688
WIRE 4944 4688 4848 4688
WIRE 5920 4688 5920 4640
WIRE 6064 4688 6064 4592
WIRE 6064 4688 5920 4688
WIRE 6160 4688 6064 4688
WIRE 7136 4688 7136 4640
WIRE 7280 4688 7280 4592
WIRE 7280 4688 7136 4688
WIRE 7376 4688 7280 4688
WIRE 2656 4704 2656 4576
WIRE -992 4720 -992 4656
WIRE -864 4720 -864 4624
WIRE -864 4720 -992 4720
WIRE -768 4720 -864 4720
WIRE -496 4720 -496 4656
WIRE -368 4720 -368 4624
WIRE -368 4720 -496 4720
WIRE -272 4720 -368 4720
WIRE 560 4720 560 4160
WIRE 608 4720 560 4720
WIRE 4144 4720 4144 4160
WIRE 4192 4720 4144 4720
WIRE 5360 4720 5360 4112
WIRE 5408 4720 5360 4720
WIRE 6576 4720 6576 4160
WIRE 6624 4720 6576 4720
WIRE 1120 4736 1120 4688
WIRE 4704 4736 4704 4688
WIRE 5920 4736 5920 4688
WIRE 7136 4736 7136 4688
WIRE 2384 4752 2384 4432
WIRE 2512 4752 2512 4608
WIRE 2512 4752 2384 4752
WIRE 2592 4752 2512 4752
WIRE -992 4768 -992 4720
WIRE -496 4768 -496 4720
WIRE 2384 4768 2384 4752
WIRE 672 4864 672 4768
WIRE 672 4864 304 4864
WIRE 800 4864 800 4608
WIRE 800 4864 672 4864
WIRE 1120 4864 1120 4816
WIRE 1120 4864 800 4864
WIRE 1424 4864 1424 4736
WIRE 1424 4864 1120 4864
WIRE 2384 4864 2384 4848
WIRE 2384 4864 2016 4864
WIRE 2656 4864 2656 4800
WIRE 2656 4864 2384 4864
WIRE 2832 4864 2832 4720
WIRE 2832 4864 2656 4864
WIRE 3136 4864 3136 4768
WIRE 3136 4864 2832 4864
WIRE 4256 4864 4256 4768
WIRE 4256 4864 3888 4864
WIRE 4384 4864 4384 4608
WIRE 4384 4864 4256 4864
WIRE 4704 4864 4704 4816
WIRE 4704 4864 4384 4864
WIRE 5008 4864 5008 4736
WIRE 5008 4864 4704 4864
WIRE 5472 4864 5472 4768
WIRE 5472 4864 5008 4864
WIRE 5920 4864 5920 4816
WIRE 5920 4864 5472 4864
WIRE 6224 4864 6224 4736
WIRE 6224 4864 5920 4864
WIRE 6688 4864 6688 4768
WIRE 6688 4864 6224 4864
WIRE 7136 4864 7136 4816
WIRE 7136 4864 6688 4864
WIRE 7440 4864 7440 4736
WIRE 7440 4864 7136 4864
WIRE -992 4896 -992 4848
WIRE -992 4896 -1600 4896
WIRE -848 4896 -992 4896
WIRE -704 4896 -704 4768
WIRE -704 4896 -848 4896
WIRE -496 4896 -496 4848
WIRE -496 4896 -704 4896
WIRE -352 4896 -496 4896
WIRE -208 4896 -208 4768
WIRE -208 4896 -352 4896
WIRE 304 4912 304 4864
WIRE 1008 4912 1008 4432
WIRE 1520 4912 1520 4448
WIRE 2016 4912 2016 4864
WIRE 2720 4912 2720 4672
WIRE 3232 4912 3232 4560
WIRE 3888 4912 3888 4864
WIRE 4592 4912 4592 4432
WIRE 5104 4912 5104 4448
WIRE 5808 4912 5808 4432
WIRE 6320 4912 6320 4448
WIRE 7024 4912 7024 4432
WIRE 7536 4912 7536 4448
WIRE -848 4928 -848 4896
WIRE -352 4928 -352 4896
WIRE 1008 5072 1520 4912
WIRE 1520 5072 1008 4912
WIRE 2720 5072 3232 4912
WIRE 3232 5072 2720 4912
WIRE 4592 5072 5104 4912
WIRE 5104 5072 4592 4912
WIRE 5808 5072 6320 4912
WIRE 6320 5072 5808 4912
WIRE 7024 5072 7536 4912
WIRE 7536 5072 7024 4912
WIRE -1472 5104 -1536 5104
WIRE -992 5104 -1392 5104
WIRE -704 5104 -992 5104
WIRE -496 5104 -704 5104
WIRE -208 5104 -496 5104
WIRE 400 5120 304 5120
WIRE 672 5120 480 5120
WIRE 944 5120 672 5120
WIRE 1120 5120 944 5120
WIRE 1424 5120 1120 5120
WIRE 3984 5120 3888 5120
WIRE 4256 5120 4064 5120
WIRE 4528 5120 4256 5120
WIRE 4704 5120 4528 5120
WIRE 5008 5120 4704 5120
WIRE 5744 5120 5008 5120
WIRE 5920 5120 5744 5120
WIRE 6224 5120 5920 5120
WIRE 6960 5120 6224 5120
WIRE 7136 5120 6960 5120
WIRE 7440 5120 7136 5120
WIRE 672 5136 672 5120
WIRE 2112 5136 2016 5136
WIRE 2384 5136 2192 5136
WIRE 2512 5136 2384 5136
WIRE 2832 5136 2512 5136
WIRE 3136 5136 2832 5136
WIRE 4256 5136 4256 5120
WIRE 944 5184 944 5120
WIRE 2832 5184 2832 5136
WIRE 4528 5184 4528 5120
WIRE 5744 5184 5744 5120
WIRE 6960 5184 6960 5120
WIRE 1424 5216 1424 5120
WIRE 5008 5216 5008 5120
WIRE 6224 5216 6224 5120
WIRE 7440 5216 7440 5120
WIRE 672 5232 672 5216
WIRE 800 5232 672 5232
WIRE 880 5232 800 5232
WIRE 2384 5232 2384 5136
WIRE 4256 5232 4256 5216
WIRE 4384 5232 4256 5232
WIRE 4464 5232 4384 5232
WIRE 5680 5232 5472 5232
WIRE 6896 5232 6688 5232
WIRE 1120 5264 1120 5120
WIRE 3136 5264 3136 5136
WIRE 4704 5264 4704 5120
WIRE 5920 5264 5920 5120
WIRE 7136 5264 7136 5120
WIRE -704 5280 -704 5104
WIRE -208 5280 -208 5104
WIRE 2272 5280 2272 4384
WIRE 2320 5280 2272 5280
WIRE 1008 5312 1008 5072
WIRE 1056 5312 1008 5312
WIRE 1424 5312 1424 5296
WIRE 1520 5312 1520 5072
WIRE 1520 5312 1424 5312
WIRE 2832 5312 2832 5264
WIRE 2976 5312 2832 5312
WIRE 3072 5312 2976 5312
WIRE 4592 5312 4592 5072
WIRE 4640 5312 4592 5312
WIRE 5008 5312 5008 5296
WIRE 5104 5312 5104 5072
WIRE 5104 5312 5008 5312
WIRE 5808 5312 5808 5072
WIRE 5856 5312 5808 5312
WIRE 6224 5312 6224 5296
WIRE 6320 5312 6320 5072
WIRE 6320 5312 6224 5312
WIRE 7024 5312 7024 5072
WIRE 7072 5312 7024 5312
WIRE 7440 5312 7440 5296
WIRE 7536 5312 7536 5072
WIRE 7536 5312 7440 5312
WIRE -992 5344 -992 5104
WIRE -496 5344 -496 5104
WIRE 2832 5360 2832 5312
WIRE -1488 5392 -1536 5392
WIRE -1056 5392 -1488 5392
WIRE -704 5392 -704 5360
WIRE -656 5392 -704 5392
WIRE -560 5392 -656 5392
WIRE -208 5392 -208 5360
WIRE -144 5392 -208 5392
WIRE -96 5392 -144 5392
WIRE 800 5392 800 5232
WIRE 2512 5392 2512 5136
WIRE 4384 5392 4384 5232
WIRE 944 5408 944 5280
WIRE 1120 5408 1120 5360
WIRE 1120 5408 944 5408
WIRE 2976 5408 2976 5312
WIRE 3040 5408 2976 5408
WIRE 3136 5408 3136 5360
WIRE 3136 5408 3104 5408
WIRE 4528 5408 4528 5280
WIRE 4704 5408 4704 5360
WIRE 4704 5408 4528 5408
WIRE 5744 5408 5744 5280
WIRE 5920 5408 5920 5360
WIRE 5920 5408 5744 5408
WIRE 6960 5408 6960 5280
WIRE 7136 5408 7136 5360
WIRE 7136 5408 6960 5408
WIRE 736 5440 304 5440
WIRE 1120 5440 1120 5408
WIRE 1424 5440 1424 5312
WIRE 1696 5440 1424 5440
WIRE 2448 5440 2016 5440
WIRE 3136 5440 3136 5408
WIRE 3232 5440 3232 5072
WIRE 3232 5440 3136 5440
WIRE 3408 5440 3232 5440
WIRE 4320 5440 3888 5440
WIRE 4704 5440 4704 5408
WIRE 5008 5440 5008 5312
WIRE 5040 5440 5008 5440
WIRE 5136 5440 5312 4560
WIRE 5136 5440 5040 5440
WIRE 5312 5440 5136 4560
WIRE 5376 5440 5312 5440
WIRE 5472 5440 5472 5232
WIRE 5472 5440 5456 5440
WIRE 5920 5440 5920 5408
WIRE 6224 5440 6224 5312
WIRE 6256 5440 6224 5440
WIRE 6352 5440 6528 4560
WIRE 6352 5440 6256 5440
WIRE 6528 5440 6352 4560
WIRE 6592 5440 6528 5440
WIRE 6688 5440 6688 5232
WIRE 6688 5440 6672 5440
WIRE 7136 5440 7136 5408
WIRE 7440 5440 7440 5312
WIRE 7712 5440 7440 5440
WIRE -992 5472 -992 5440
WIRE -496 5472 -496 5440
WIRE 1328 5472 1264 5472
WIRE 1424 5472 1424 5440
WIRE 1424 5472 1392 5472
WIRE 2832 5472 2832 5440
WIRE 2832 5472 2656 5472
WIRE 4912 5472 4848 5472
WIRE 5008 5472 5008 5440
WIRE 5008 5472 4976 5472
WIRE 6128 5472 6064 5472
WIRE 6224 5472 6224 5440
WIRE 6224 5472 6192 5472
WIRE 7344 5472 7280 5472
WIRE 7440 5472 7440 5440
WIRE 7440 5472 7408 5472
WIRE -800 5520 -864 5520
WIRE -704 5520 -704 5392
WIRE -704 5520 -736 5520
WIRE -304 5520 -368 5520
WIRE -208 5520 -208 5392
WIRE -208 5520 -240 5520
WIRE 1424 5520 1424 5472
WIRE 2832 5520 2832 5472
WIRE 5008 5520 5008 5472
WIRE 6224 5520 6224 5472
WIRE 7440 5520 7440 5472
WIRE 672 5552 672 5232
WIRE 4256 5552 4256 5232
WIRE 5472 5552 5472 5440
WIRE 6688 5552 6688 5440
WIRE -704 5568 -704 5520
WIRE -208 5568 -208 5520
WIRE 1120 5568 1120 5520
WIRE 1264 5568 1264 5472
WIRE 1264 5568 1120 5568
WIRE 1360 5568 1264 5568
WIRE 2720 5568 2720 5072
WIRE 2768 5568 2720 5568
WIRE 4704 5568 4704 5520
WIRE 4848 5568 4848 5472
WIRE 4848 5568 4704 5568
WIRE 4944 5568 4848 5568
WIRE 5920 5568 5920 5520
WIRE 6064 5568 6064 5472
WIRE 6064 5568 5920 5568
WIRE 6160 5568 6064 5568
WIRE 7136 5568 7136 5520
WIRE 7280 5568 7280 5472
WIRE 7280 5568 7136 5568
WIRE 7376 5568 7280 5568
WIRE 3136 5584 3136 5440
WIRE 560 5600 560 4720
WIRE 608 5600 560 5600
WIRE 2656 5600 2656 5472
WIRE 4144 5600 4144 4720
WIRE 4192 5600 4144 5600
WIRE 5360 5600 5360 4720
WIRE 5408 5600 5360 5600
WIRE 6576 5600 6576 4720
WIRE 6624 5600 6576 5600
WIRE -992 5616 -992 5552
WIRE -864 5616 -864 5520
WIRE -864 5616 -992 5616
WIRE -768 5616 -864 5616
WIRE -496 5616 -496 5552
WIRE -368 5616 -368 5520
WIRE -368 5616 -496 5616
WIRE -272 5616 -368 5616
WIRE 1120 5616 1120 5568
WIRE 4704 5616 4704 5568
WIRE 5920 5616 5920 5568
WIRE 7136 5616 7136 5568
WIRE 2384 5648 2384 5328
WIRE 2512 5648 2512 5488
WIRE 2512 5648 2384 5648
WIRE 2592 5648 2512 5648
WIRE -992 5664 -992 5616
WIRE -496 5664 -496 5616
WIRE 2384 5664 2384 5648
WIRE 672 5744 672 5648
WIRE 672 5744 304 5744
WIRE 800 5744 800 5488
WIRE 800 5744 672 5744
WIRE 1120 5744 1120 5696
WIRE 1120 5744 800 5744
WIRE 1424 5744 1424 5616
WIRE 1424 5744 1120 5744
WIRE 4256 5744 4256 5648
WIRE 4256 5744 3888 5744
WIRE 4384 5744 4384 5488
WIRE 4384 5744 4256 5744
WIRE 4704 5744 4704 5696
WIRE 4704 5744 4384 5744
WIRE 5008 5744 5008 5616
WIRE 5008 5744 4704 5744
WIRE 5472 5744 5472 5648
WIRE 5472 5744 5008 5744
WIRE 5920 5744 5920 5696
WIRE 5920 5744 5472 5744
WIRE 6224 5744 6224 5616
WIRE 6224 5744 5920 5744
WIRE 6688 5744 6688 5648
WIRE 6688 5744 6224 5744
WIRE 7136 5744 7136 5696
WIRE 7136 5744 6688 5744
WIRE 7440 5744 7440 5616
WIRE 7440 5744 7136 5744
WIRE 2384 5760 2384 5744
WIRE 2384 5760 2016 5760
WIRE 2656 5760 2656 5696
WIRE 2656 5760 2384 5760
WIRE 2832 5760 2832 5616
WIRE 2832 5760 2656 5760
WIRE 3136 5760 3136 5664
WIRE 3136 5760 2832 5760
WIRE -992 5792 -992 5744
WIRE -992 5792 -1600 5792
WIRE -848 5792 -992 5792
WIRE -704 5792 -704 5664
WIRE -704 5792 -848 5792
WIRE -496 5792 -496 5744
WIRE -496 5792 -704 5792
WIRE -352 5792 -496 5792
WIRE -208 5792 -208 5664
WIRE -208 5792 -352 5792
WIRE 304 5792 304 5744
WIRE 3888 5792 3888 5744
WIRE 2016 5808 2016 5760
WIRE -848 5824 -848 5792
WIRE -352 5824 -352 5792
FLAG -1168 3920 0
FLAG -1168 3792 VCC
FLAG -736 3920 0
FLAG -736 3808 DATA
FLAG -848 4928 0
FLAG -1536 4208 VCC
FLAG -352 4928 0
FLAG -1488 4496 CLK
FLAG -656 4496 EN
FLAG 304 4912 0
FLAG 304 4240 VCC
FLAG 304 5792 0
FLAG 304 5120 VCC
FLAG 304 5440 _D
FLAG 304 4560 D
FLAG 304 4160 EN
FLAG -848 5824 0
FLAG -1536 5104 VCC
FLAG -352 5824 0
FLAG -1488 5392 DATA
FLAG -656 5392 _D
FLAG -144 5392 D
FLAG -560 3920 0
FLAG -560 3808 CLK
FLAG -144 4496 _EN
FLAG 1696 5440 D0
FLAG 1696 4560 _D0
FLAG 2016 5808 0
FLAG 2016 5136 VCC
FLAG 2016 5440 _D
FLAG 2016 4160 _EN
FLAG 3408 5440 D1
FLAG 2016 4912 0
FLAG 2016 4240 VCC
FLAG 2016 4560 D
FLAG 3408 4560 _D1
FLAG 3888 4912 0
FLAG 3888 4240 VCC
FLAG 3888 5792 0
FLAG 3888 5120 VCC
FLAG 3888 5440 _D
FLAG 3888 4560 D
FLAG 3888 4160 EN
FLAG 5040 5440 Q0
FLAG 5040 4560 _Q0
FLAG 3888 4112 _EN
FLAG 6256 5440 Q1
FLAG 6256 4560 _Q1
FLAG 7712 5440 Q2
FLAG 7712 4560 _Q2
SYMBOL voltage -1168 3808 R0
WINDOW 123 0 0 Left 0
WINDOW 39 0 0 Left 0
SYMATTR InstName VCC
SYMATTR Value {VCC}
SYMBOL voltage -736 3824 R0
WINDOW 123 -77 30 VRight 2
WINDOW 39 0 0 Left 0
WINDOW 0 -51 28 VRight 2
WINDOW 3 647 148 Right 2
SYMATTR Value2 AC 5
SYMATTR InstName V_BIT5
SYMATTR Value PULSE(0 {VCC} 0 {rise} {rise} {1/freq/1.5-rise} {1/freq/0.75} {256*reps})
SYMBOL Digital\\and 1056 3536 R0
SYMATTR InstName A1
SYMBOL Digital\\and 1056 3760 R0
SYMATTR InstName A2
SYMBOL Digital\\or 864 3552 R0
SYMATTR InstName A3
SYMBOL Digital\\or 864 3664 R0
SYMATTR InstName A4
SYMBOL Digital\\or 864 3824 R0
SYMATTR InstName A5
SYMBOL Digital\\or 864 3952 R0
SYMATTR InstName A6
SYMBOL Digital\\inv 720 3968 R270
SYMATTR InstName A7
SYMBOL npn -768 4672 R0
SYMATTR InstName Q190
SYMATTR Value 2N3904
SYMBOL schottky -800 4640 R270
WINDOW 0 32 32 VTop 2
WINDOW 3 0 32 VBottom 2
SYMATTR InstName D61
SYMATTR Value BAT54
SYMATTR Description Diode
SYMATTR Type diode
SYMBOL res -720 4368 R0
SYMATTR InstName R428
SYMATTR Value {Rout_pull}
SYMBOL res -1488 4224 R270
WINDOW 0 32 56 VTop 2
WINDOW 3 0 56 VBottom 2
SYMATTR InstName R430
SYMATTR Value 1m
SYMBOL npn -1056 4448 R0
SYMATTR InstName Q191
SYMATTR Value 2N3904
SYMBOL res -1008 4560 R0
SYMATTR InstName R433
SYMATTR Value {Rin*2}
SYMBOL res -1008 4752 R0
SYMATTR InstName R434
SYMATTR Value {Rin}
SYMBOL npn -272 4672 R0
SYMATTR InstName Q192
SYMATTR Value 2N3904
SYMBOL schottky -304 4640 R270
WINDOW 0 32 32 VTop 2
WINDOW 3 0 32 VBottom 2
SYMATTR InstName D62
SYMATTR Value BAT54
SYMATTR Description Diode
SYMATTR Type diode
SYMBOL res -224 4368 R0
SYMATTR InstName R427
SYMATTR Value {Rout_pull}
SYMBOL npn -560 4448 R0
SYMATTR InstName Q193
SYMATTR Value 2N3904
SYMBOL res -512 4560 R0
SYMATTR InstName R429
SYMATTR Value {Rin*2}
SYMBOL res -512 4752 R0
SYMATTR InstName R431
SYMATTR Value {Rin}
SYMBOL npn 1360 4640 R0
SYMATTR InstName Q1
SYMATTR Value 2N3904
SYMBOL schottky 1328 4608 R270
WINDOW 0 32 32 VTop 2
WINDOW 3 0 32 VBottom 2
SYMATTR InstName D10
SYMATTR Value BAT54
SYMATTR Description Diode
SYMATTR Type diode
SYMBOL res 384 4256 R270
WINDOW 0 32 56 VTop 2
WINDOW 3 0 56 VBottom 2
SYMATTR InstName R3
SYMATTR Value 1m
SYMBOL npn 1056 4384 R0
SYMATTR InstName Q2
SYMATTR Value 2N3904
SYMBOL res 1408 4320 R0
SYMATTR InstName R37
SYMATTR Value {Rout_pull}
SYMBOL res 1104 4544 R0
SYMATTR InstName R38
SYMATTR Value {Rin*2}
SYMBOL res 1104 4720 R0
SYMATTR InstName R40
SYMATTR Value {Rin}
SYMBOL npn 1360 5520 R0
SYMATTR InstName Q3
SYMATTR Value 2N3904
SYMBOL schottky 1328 5488 R270
WINDOW 0 32 32 VTop 2
WINDOW 3 0 32 VBottom 2
SYMATTR InstName D1
SYMATTR Value BAT54
SYMATTR Description Diode
SYMATTR Type diode
SYMBOL npn 1056 5264 R0
SYMATTR InstName Q4
SYMATTR Value 2N3904
SYMBOL res 1408 5200 R0
SYMATTR InstName R4
SYMATTR Value {Rout_pull}
SYMBOL res 1104 5424 R0
SYMATTR InstName R5
SYMATTR Value {Rin*2}
SYMBOL res 1104 5600 R0
SYMATTR InstName R6
SYMATTR Value {Rin}
SYMBOL npn 880 4304 R0
SYMATTR InstName Q5
SYMATTR Value 2N3904
SYMBOL pnp 736 4608 M180
SYMATTR InstName Q6
SYMATTR Value 2N3906
SYMBOL pnp 608 4768 M180
SYMATTR InstName Q7
SYMATTR Value 2N3906
SYMBOL res 384 5136 R270
WINDOW 0 32 56 VTop 2
WINDOW 3 0 56 VBottom 2
SYMATTR InstName R2
SYMATTR Value 1m
SYMBOL npn 880 5184 R0
SYMATTR InstName Q8
SYMATTR Value 2N3904
SYMBOL pnp 736 5488 M180
SYMATTR InstName Q9
SYMATTR Value 2N3906
SYMBOL pnp 608 5648 M180
SYMATTR InstName Q10
SYMATTR Value 2N3906
SYMBOL res 656 5120 R0
SYMATTR InstName R7
SYMATTR Value {Rc_up}
SYMBOL res 656 4240 R0
SYMATTR InstName R8
SYMATTR Value {Rc_up}
SYMBOL npn -768 5568 R0
SYMATTR InstName Q11
SYMATTR Value 2N3904
SYMBOL schottky -800 5536 R270
WINDOW 0 32 32 VTop 2
WINDOW 3 0 32 VBottom 2
SYMATTR InstName D2
SYMATTR Value BAT54
SYMATTR Description Diode
SYMATTR Type diode
SYMBOL res -720 5264 R0
SYMATTR InstName R9
SYMATTR Value {Rout_pull}
SYMBOL res -1488 5120 R270
WINDOW 0 32 56 VTop 2
WINDOW 3 0 56 VBottom 2
SYMATTR InstName R10
SYMATTR Value 1m
SYMBOL npn -1056 5344 R0
SYMATTR InstName Q12
SYMATTR Value 2N3904
SYMBOL res -1008 5456 R0
SYMATTR InstName R13
SYMATTR Value {Rin*2}
SYMBOL res -1008 5648 R0
SYMATTR InstName R14
SYMATTR Value {Rin}
SYMBOL npn -272 5568 R0
SYMATTR InstName Q13
SYMATTR Value 2N3904
SYMBOL schottky -304 5536 R270
WINDOW 0 32 32 VTop 2
WINDOW 3 0 32 VBottom 2
SYMATTR InstName D3
SYMATTR Value BAT54
SYMATTR Description Diode
SYMATTR Type diode
SYMBOL res -224 5264 R0
SYMATTR InstName R15
SYMATTR Value {Rout_pull}
SYMBOL npn -560 5344 R0
SYMATTR InstName Q14
SYMATTR Value 2N3904
SYMBOL res -512 5456 R0
SYMATTR InstName R16
SYMATTR Value {Rin*2}
SYMBOL res -512 5648 R0
SYMATTR InstName R17
SYMATTR Value {Rin}
SYMBOL voltage -560 3824 R0
WINDOW 123 -77 30 VRight 2
WINDOW 39 0 0 Left 0
WINDOW 0 -51 28 VRight 2
WINDOW 3 521 -129 Right 2
SYMATTR Value2 AC 5
SYMATTR InstName V_BIT1
SYMATTR Value PULSE(0 {VCC} {1/freq/4} {rise} {rise} {1/freq/2-rise} {1/freq} {128*reps})
SYMBOL schottky 3104 5424 M270
WINDOW 0 32 32 VTop 2
WINDOW 3 0 32 VBottom 2
SYMATTR InstName D5
SYMATTR Value BAT54
SYMATTR Description Diode
SYMATTR Type diode
SYMBOL res 3120 5680 M180
WINDOW 0 36 76 Left 2
WINDOW 3 36 40 Left 2
SYMATTR InstName R19
SYMATTR Value {Rout_pull}
SYMBOL res 2816 5456 M180
WINDOW 0 36 76 Left 2
WINDOW 3 36 40 Left 2
SYMATTR InstName R20
SYMATTR Value {Rin*2}
SYMBOL res 2816 5280 M180
WINDOW 0 36 76 Left 2
WINDOW 3 36 40 Left 2
SYMATTR InstName R21
SYMATTR Value {Rin}
SYMBOL res 2096 5120 M90
WINDOW 0 0 56 VBottom 2
WINDOW 3 32 56 VTop 2
SYMATTR InstName R22
SYMATTR Value 1m
SYMBOL res 2368 5760 M180
WINDOW 0 36 76 Left 2
WINDOW 3 36 40 Left 2
SYMATTR InstName R23
SYMATTR Value {Rc_up}
SYMBOL pnp 3072 5360 M180
SYMATTR InstName Q25
SYMATTR Value 2N3906
SYMBOL pnp 2768 5616 M180
SYMATTR InstName Q17
SYMATTR Value 2N3906
SYMBOL pnp 2592 5696 M180
SYMATTR InstName Q18
SYMATTR Value 2N3906
SYMBOL npn 2320 5232 R0
SYMATTR InstName Q22
SYMATTR Value 2N3904
SYMBOL npn 2448 5392 R0
SYMATTR InstName Q23
SYMATTR Value 2N3904
SYMBOL schottky 3104 4528 M270
WINDOW 0 32 32 VTop 2
WINDOW 3 0 32 VBottom 2
SYMATTR InstName D4
SYMATTR Value BAT54
SYMATTR Description Diode
SYMATTR Type diode
SYMBOL res 3120 4784 M180
WINDOW 0 36 76 Left 2
WINDOW 3 36 40 Left 2
SYMATTR InstName R1
SYMATTR Value {Rout_pull}
SYMBOL res 2816 4560 M180
WINDOW 0 36 76 Left 2
WINDOW 3 36 40 Left 2
SYMATTR InstName R11
SYMATTR Value {Rin*2}
SYMBOL res 2816 4384 M180
WINDOW 0 36 76 Left 2
WINDOW 3 36 40 Left 2
SYMATTR InstName R12
SYMATTR Value {Rin}
SYMBOL res 2096 4224 M90
WINDOW 0 0 56 VBottom 2
WINDOW 3 32 56 VTop 2
SYMATTR InstName R18
SYMATTR Value 1m
SYMBOL res 2368 4864 M180
WINDOW 0 36 76 Left 2
WINDOW 3 36 40 Left 2
SYMATTR InstName R24
SYMATTR Value {Rc_up}
SYMBOL pnp 3072 4464 M180
SYMATTR InstName Q15
SYMATTR Value 2N3906
SYMBOL pnp 2768 4720 M180
SYMATTR InstName Q16
SYMATTR Value 2N3906
SYMBOL pnp 2592 4800 M180
SYMATTR InstName Q19
SYMATTR Value 2N3906
SYMBOL npn 2320 4336 R0
SYMATTR InstName Q20
SYMATTR Value 2N3904
SYMBOL npn 2448 4512 R0
SYMATTR InstName Q21
SYMATTR Value 2N3904
SYMBOL npn 4944 4640 R0
SYMATTR InstName Q24
SYMATTR Value 2N3904
SYMBOL schottky 4912 4608 R270
WINDOW 0 32 32 VTop 2
WINDOW 3 0 32 VBottom 2
SYMATTR InstName D6
SYMATTR Value BAT54
SYMATTR Description Diode
SYMATTR Type diode
SYMBOL res 3968 4256 R270
WINDOW 0 32 56 VTop 2
WINDOW 3 0 56 VBottom 2
SYMATTR InstName R25
SYMATTR Value 1m
SYMBOL npn 4640 4384 R0
SYMATTR InstName Q26
SYMATTR Value 2N3904
SYMBOL res 4992 4320 R0
SYMATTR InstName R26
SYMATTR Value {Rout_pull}
SYMBOL res 4688 4544 R0
SYMATTR InstName R27
SYMATTR Value {Rin*2}
SYMBOL res 4688 4720 R0
SYMATTR InstName R28
SYMATTR Value {Rin}
SYMBOL npn 4944 5520 R0
SYMATTR InstName Q27
SYMATTR Value 2N3904
SYMBOL schottky 4912 5488 R270
WINDOW 0 32 32 VTop 2
WINDOW 3 0 32 VBottom 2
SYMATTR InstName D7
SYMATTR Value BAT54
SYMATTR Description Diode
SYMATTR Type diode
SYMBOL npn 4640 5264 R0
SYMATTR InstName Q28
SYMATTR Value 2N3904
SYMBOL res 4992 5200 R0
SYMATTR InstName R29
SYMATTR Value {Rout_pull}
SYMBOL res 4688 5424 R0
SYMATTR InstName R30
SYMATTR Value {Rin*2}
SYMBOL res 4688 5600 R0
SYMATTR InstName R31
SYMATTR Value {Rin}
SYMBOL npn 4464 4304 R0
SYMATTR InstName Q29
SYMATTR Value 2N3904
SYMBOL pnp 4320 4608 M180
SYMATTR InstName Q30
SYMATTR Value 2N3906
SYMBOL pnp 4192 4768 M180
SYMATTR InstName Q31
SYMATTR Value 2N3906
SYMBOL res 3968 5136 R270
WINDOW 0 32 56 VTop 2
WINDOW 3 0 56 VBottom 2
SYMATTR InstName R32
SYMATTR Value 1m
SYMBOL npn 4464 5184 R0
SYMATTR InstName Q32
SYMATTR Value 2N3904
SYMBOL pnp 4320 5488 M180
SYMATTR InstName Q33
SYMATTR Value 2N3906
SYMBOL pnp 4192 5648 M180
SYMATTR InstName Q34
SYMATTR Value 2N3906
SYMBOL res 4240 5120 R0
SYMATTR InstName R33
SYMATTR Value {Rc_up}
SYMBOL res 4240 4240 R0
SYMATTR InstName R34
SYMATTR Value {Rc_up}
SYMBOL npn 6160 4640 R0
SYMATTR InstName Q35
SYMATTR Value 2N3904
SYMBOL schottky 6128 4608 R270
WINDOW 0 32 32 VTop 2
WINDOW 3 0 32 VBottom 2
SYMATTR InstName D8
SYMATTR Value BAT54
SYMATTR Description Diode
SYMATTR Type diode
SYMBOL npn 5856 4384 R0
SYMATTR InstName Q36
SYMATTR Value 2N3904
SYMBOL res 6208 4320 R0
SYMATTR InstName R36
SYMATTR Value {Rout_pull}
SYMBOL res 5904 4544 R0
SYMATTR InstName R39
SYMATTR Value {Rin*2}
SYMBOL res 5904 4720 R0
SYMATTR InstName R41
SYMATTR Value {Rin}
SYMBOL npn 6160 5520 R0
SYMATTR InstName Q37
SYMATTR Value 2N3904
SYMBOL schottky 6128 5488 R270
WINDOW 0 32 32 VTop 2
WINDOW 3 0 32 VBottom 2
SYMATTR InstName D9
SYMATTR Value BAT54
SYMATTR Description Diode
SYMATTR Type diode
SYMBOL npn 5856 5264 R0
SYMATTR InstName Q38
SYMATTR Value 2N3904
SYMBOL res 6208 5200 R0
SYMATTR InstName R42
SYMATTR Value {Rout_pull}
SYMBOL res 5904 5424 R0
SYMATTR InstName R43
SYMATTR Value {Rin*2}
SYMBOL res 5904 5600 R0
SYMATTR InstName R44
SYMATTR Value {Rin}
SYMBOL npn 5680 4304 R0
SYMATTR InstName Q39
SYMATTR Value 2N3904
SYMBOL pnp 5408 4768 M180
SYMATTR InstName Q41
SYMATTR Value 2N3906
SYMBOL npn 5680 5184 R0
SYMATTR InstName Q42
SYMATTR Value 2N3904
SYMBOL pnp 5408 5648 M180
SYMATTR InstName Q44
SYMATTR Value 2N3906
SYMBOL npn 7376 4640 R0
SYMATTR InstName Q45
SYMATTR Value 2N3904
SYMBOL schottky 7344 4608 R270
WINDOW 0 32 32 VTop 2
WINDOW 3 0 32 VBottom 2
SYMATTR InstName D11
SYMATTR Value BAT54
SYMATTR Description Diode
SYMATTR Type diode
SYMBOL npn 7072 4384 R0
SYMATTR InstName Q46
SYMATTR Value 2N3904
SYMBOL res 7424 4320 R0
SYMATTR InstName R35
SYMATTR Value {Rout_pull}
SYMBOL res 7120 4544 R0
SYMATTR InstName R45
SYMATTR Value {Rin*2}
SYMBOL res 7120 4720 R0
SYMATTR InstName R48
SYMATTR Value {Rin}
SYMBOL npn 7376 5520 R0
SYMATTR InstName Q47
SYMATTR Value 2N3904
SYMBOL schottky 7344 5488 R270
WINDOW 0 32 32 VTop 2
WINDOW 3 0 32 VBottom 2
SYMATTR InstName D12
SYMATTR Value BAT54
SYMATTR Description Diode
SYMATTR Type diode
SYMBOL npn 7072 5264 R0
SYMATTR InstName Q48
SYMATTR Value 2N3904
SYMBOL res 7424 5200 R0
SYMATTR InstName R49
SYMATTR Value {Rout_pull}
SYMBOL res 7120 5424 R0
SYMATTR InstName R50
SYMATTR Value {Rin*2}
SYMBOL res 7120 5600 R0
SYMATTR InstName R51
SYMATTR Value {Rin}
SYMBOL npn 6896 4304 R0
SYMATTR InstName Q49
SYMATTR Value 2N3904
SYMBOL pnp 6624 4768 M180
SYMATTR InstName Q51
SYMATTR Value 2N3906
SYMBOL npn 6896 5184 R0
SYMATTR InstName Q52
SYMATTR Value 2N3904
SYMBOL pnp 6624 5648 M180
SYMATTR InstName Q54
SYMATTR Value 2N3906
SYMBOL res 5472 4544 R90
WINDOW 0 0 56 VBottom 2
WINDOW 3 32 56 VTop 2
SYMATTR InstName R54
SYMATTR Value {Rc_up}
SYMBOL res 5472 5424 R90
WINDOW 0 0 56 VBottom 2
WINDOW 3 32 56 VTop 2
SYMATTR InstName R55
SYMATTR Value {Rc_up}
SYMBOL res 6688 4544 R90
WINDOW 0 0 56 VBottom 2
WINDOW 3 32 56 VTop 2
SYMATTR InstName R56
SYMATTR Value {Rc_up}
SYMBOL res 6688 5424 R90
WINDOW 0 0 56 VBottom 2
WINDOW 3 32 56 VTop 2
SYMATTR InstName R57
SYMATTR Value {Rc_up}
TEXT -1480 4040 Left 2 !.tran {32*reps/freq}
TEXT -1480 3768 Left 2 !.param VCC=5
TEXT -1480 3800 Left 2 !.param freq=5mega
TEXT -1480 3832 Left 2 !.param rise=1n
TEXT -1480 3864 Left 2 !.param reps=1
TEXT 512 4016 Left 2 ;PAR_LD
TEXT 528 3992 Left 2 ;PAR_D
TEXT 536 3888 Left 2 ;SHIFT
TEXT -1480 3928 Left 2 !.param Rin=100
TEXT -1480 3960 Left 2 !.param Rout_pull=300
TEXT -1480 3992 Left 2 !.param Rin_ld = 1000
TEXT -1480 3896 Left 2 !.param Rc_up=1000
TEXT -1480 4080 Left 2 !;.step temp -25 125 25
TEXT -1480 4112 Left 2 !.temp 125
